data/nesta/api/nesta_case1394sop_eir__api.m
%%%%%%%%%%%%%%%%%%%%%%%%%%%%%%%%%%%%%%%%%%%%%%%%%%%%%%%%%%%%%%%%%%%%%%%%%%%
%%%%                                                                  %%%%%
%%%%      NICTA Energy System Test Case Archive (NESTA) - v0.1.5      %%%%%
%%%%            Optimal Power Flow - Active Power Increase            %%%%%
%%%%                       30 - October - 2014                        %%%%%
%%%%                                                                  %%%%%
%%%%%%%%%%%%%%%%%%%%%%%%%%%%%%%%%%%%%%%%%%%%%%%%%%%%%%%%%%%%%%%%%%%%%%%%%%%
function mpc = nesta_case1394sop_eir__api
mpc.version = '2';
mpc.baseMVA = 100.0;

%% bus data
%	bus_i	type	Pd	Qd	Gs	Bs	area	Vm	Va	baseKV	zone	Vmax	Vmin
mpc.bus = [
	10	 1	 43.64	 3.71	 0.0	 0.0	 2	     1.0541	     0.0000	 38.0	 1	     1.1500	     0.8500;
	11	 1	 24.77	 5.26	 0.0	 0.0	 2	     1.0527	     0.0000	 38.0	 1	     1.1500	     0.8500;
	12	 1	 43.64	 3.04	 0.0	 0.0	 1	     1.0445	     0.0000	 38.0	 1	     1.1500	     0.8500;
	13	 1	 53.48	 2.20	 0.0	 0.0	 1	     1.0463	     0.0000	 38.0	 1	     1.1500	     0.8500;
	14	 1	 40.09	 6.38	 0.0	 0.0	 2	     1.0347	     0.0000	 38.0	 1	     1.1500	     0.8500;
	15	 1	 34.27	 5.46	 0.0	 0.0	 2	     1.0369	     0.0000	 38.0	 1	     1.1500	     0.8500;
	1021	 1	 0.00	 0.00	 0.0	 0.0	 4	     1.0091	     0.0000	 110.0	 1	     1.1500	     0.8500;
	1041	 1	 0.97	 0.10	 0.0	 0.0	 3	     0.9999	     0.0000	 110.0	 1	     1.1500	     0.8500;
	1042	 1	 0.00	 0.00	 0.0	 0.0	 3	     1.0000	     0.0000	 220.0	 1	     1.1500	     0.8500;
	1052	 1	 0.00	 0.00	 0.0	 0.0	 3	     0.9960	     0.0000	 220.0	 1	     1.1500	     0.8500;
	1061	 1	 0.00	 0.00	 0.0	 0.0	 9	     1.0028	     0.0000	 110.0	 1	     1.1500	     0.8500;
	1062	 1	 0.00	 0.00	 0.0	 0.0	 3	     1.0000	     0.0000	 220.0	 1	     1.1500	     0.8500;
	1071	 1	 0.00	 0.00	 0.0	 0.0	 4	     1.0113	     0.0000	 110.0	 1	     1.1500	     0.8500;
	1072	 1	 0.00	 0.00	 0.0	 0.0	 3	     1.0000	     0.0000	 220.0	 1	     1.1500	     0.8500;
	1081	 1	 0.00	 0.00	 0.0	 0.0	 7	     1.0109	     0.0000	 110.0	 1	     1.1500	     0.8500;
	1101	 1	 34.33	 4.98	 0.0	 0.0	 5	     0.9941	     0.0000	 110.0	 1	     1.1500	     0.8500;
	1121	 1	 0.00	 0.00	 0.0	 0.0	 6	     1.0143	     0.0000	 110.0	 1	     1.1500	     0.8500;
	1122	 1	 0.00	 0.00	 0.0	 0.0	 6	     1.0107	     0.0000	 220.0	 1	     1.1500	     0.8500;
	1141	 1	 0.00	 0.00	 0.0	 0.0	 9	     0.9956	     0.0000	 110.0	 1	     1.1500	     0.8500;
	1161	 1	 0.00	 0.00	 0.0	 0.0	 7	     1.0000	     0.0000	 110.0	 1	     1.1500	     0.8500;
	1181	 1	 0.00	 0.00	 0.0	 0.0	 10	     1.0088	     0.0000	 110.0	 1	     1.1500	     0.8500;
	1201	 1	 0.00	 0.00	 0.0	 0.0	 1	     1.0333	     0.0000	 110.0	 1	     1.1500	     0.8500;
	1221	 1	 0.00	 0.00	 0.0	 0.0	 8	     1.0146	     0.0000	 110.0	 1	     1.1500	     0.8500;
	1231	 1	 0.00	 0.00	 0.0	 0.0	 6	     1.0136	     0.0000	 110.0	 1	     1.1500	     0.8500;
	1251	 1	 0.00	 0.00	 0.0	 0.0	 4	     1.0118	     0.0000	 110.0	 1	     1.1500	     0.8500;
	1271	 1	 0.00	 0.00	 0.0	 0.0	 10	     1.0190	     0.0000	 110.0	 1	     1.1500	     0.8500;
	1281	 1	 0.00	 0.00	 0.0	 0.0	 3	     1.0000	     0.0000	 110.0	 1	     1.1500	     0.8500;
	1301	 1	 0.00	 0.00	 0.0	 0.0	 6	     1.0113	     0.0000	 110.0	 1	     1.1500	     0.8500;
	1321	 1	 0.00	 0.00	 0.0	 0.0	 8	     1.0060	     0.0000	 110.0	 1	     1.1500	     0.8500;
	1341	 1	 0.00	 0.00	 0.0	 0.0	 9	     0.9937	     0.0000	 110.0	 1	     1.1500	     0.8500;
	1351	 1	 0.00	 0.00	 0.0	 0.0	 8	     1.0032	     0.0000	 110.0	 1	     1.1500	     0.8500;
	1361	 1	 0.00	 0.00	 0.0	 0.0	 5	     0.9974	     0.0000	 110.0	 1	     1.1500	     0.8500;
	1381	 1	 0.00	 0.00	 0.0	 0.0	 3	     0.9983	     0.0000	 110.0	 1	     1.1500	     0.8500;
	1391	 1	 0.00	 0.00	 0.0	 0.0	 3	     0.9949	     0.0000	 110.0	 1	     1.1500	     0.8500;
	1401	 1	 0.00	 0.00	 0.0	 0.0	 9	     1.0171	     0.0000	 110.0	 1	     1.1500	     0.8500;
	1421	 1	 0.00	 0.00	 0.0	 0.0	 1	     1.0069	     0.0000	 110.0	 1	     1.1500	     0.8500;
	1441	 1	 0.00	 0.00	 0.0	 0.0	 3	     0.9911	     0.0000	 110.0	 1	     1.1500	     0.8500;
	1451	 1	 0.00	 0.00	 0.0	 0.0	 1	     1.0169	     0.0000	 110.0	 1	     1.1500	     0.8500;
	1461	 1	 0.00	 0.00	 0.0	 0.0	 5	     0.9964	     0.0000	 110.0	 1	     1.1500	     0.8500;
	1481	 1	 0.00	 0.00	 0.0	 0.0	 5	     1.0042	     0.0000	 110.0	 1	     1.1500	     0.8500;
	1501	 1	 0.00	 0.00	 0.0	 0.0	 3	     0.9909	     0.0000	 110.0	 1	     1.1500	     0.8500;
	1541	 1	 0.00	 0.00	 0.0	 0.0	 6	     1.0127	     0.0000	 110.0	 1	     1.1500	     0.8500;
	1551	 1	 0.00	 0.00	 0.0	 0.0	 3	     1.0000	     0.0000	 110.0	 1	     1.1500	     0.8500;
	1581	 1	 0.00	 0.00	 0.0	 0.0	 1	     1.0332	     0.0000	 110.0	 1	     1.1500	     0.8500;
	1601	 1	 0.00	 0.00	 0.0	 0.0	 3	     1.0002	     0.0000	 110.0	 1	     1.1500	     0.8500;
	1602	 1	 0.00	 0.00	 0.0	 0.0	 3	     1.0057	     0.0000	 220.0	 1	     1.1500	     0.8500;
	1611	 1	 0.00	 0.00	 0.0	 0.0	 7	     1.0010	     0.0000	 110.0	 1	     1.1500	     0.8500;
	1621	 1	 0.00	 0.00	 0.0	 0.0	 3	     0.9961	     0.0000	 110.0	 1	     1.1500	     0.8500;
	1631	 1	 0.00	 0.00	 0.0	 0.0	 9	     1.0029	     0.0000	 110.0	 1	     1.1500	     0.8500;
	1641	 1	 0.00	 0.00	 0.0	 0.0	 9	     1.0259	     0.0000	 110.0	 1	     1.1500	     0.8500;
	1642	 1	 0.00	 0.00	 0.0	 0.0	 9	     1.0296	     0.0000	 220.0	 1	     1.1500	     0.8500;
	1651	 1	 0.00	 0.00	 0.0	 0.0	 7	     1.0078	     0.0000	 110.0	 1	     1.1500	     0.8500;
	1661	 1	 0.00	 0.00	 0.0	 0.0	 9	     1.0300	     0.0000	 110.0	 1	     1.1500	     0.8500;
	1681	 1	 0.00	 0.00	 0.0	 0.0	 3	     0.9985	     0.0000	 110.0	 1	     1.1500	     0.8500;
	1691	 1	 0.00	 0.00	 0.0	 0.0	 1	     1.0074	     0.0000	 110.0	 1	     1.1500	     0.8500;
	1701	 1	 0.00	 0.00	 0.0	 0.0	 9	     1.0051	     0.0000	 110.0	 1	     1.1500	     0.8500;
	1711	 1	 0.00	 0.00	 0.0	 0.0	 1	     1.0353	     0.0000	 110.0	 1	     1.1500	     0.8500;
	1721	 1	 0.00	 0.00	 0.0	 0.0	 5	     0.9953	     0.0000	 110.0	 1	     1.1500	     0.8500;
	1731	 1	 0.00	 0.00	 0.0	 0.0	 1	     1.0353	     0.0000	 110.0	 1	     1.1500	     0.8500;
	1741	 1	 0.00	 0.00	 0.0	 0.0	 2	     1.0071	     0.0000	 110.0	 1	     1.1500	     0.8500;
	1742	 1	 0.00	 0.00	 0.0	 0.0	 2	     1.0111	     0.0000	 220.0	 1	     1.1500	     0.8500;
	1761	 1	 0.00	 0.00	 0.0	 0.0	 9	     1.0051	     0.0000	 110.0	 1	     1.1500	     0.8500;
	1781	 1	 0.00	 0.00	 0.0	 0.0	 7	     0.9996	     0.0000	 110.0	 1	     1.1500	     0.8500;
	1801	 1	 0.00	 0.00	 0.0	 0.0	 1	     1.0075	     0.0000	 110.0	 1	     1.1500	     0.8500;
	1821	 1	 0.00	 0.00	 0.0	 0.0	 9	     1.0214	     0.0000	 110.0	 1	     1.1500	     0.8500;
	1841	 1	 0.00	 0.00	 0.0	 0.0	 6	     1.0125	     0.0000	 110.0	 1	     1.1500	     0.8500;
	1861	 1	 0.00	 0.00	 0.0	 0.0	 9	     1.0063	     0.0000	 110.0	 1	     1.1500	     0.8500;
	1871	 1	 0.00	 0.00	 0.0	 0.0	 2	     1.0187	     0.0000	 110.0	 1	     1.1500	     0.8500;
	1881	 1	 0.00	 0.00	 0.0	 0.0	 3	     1.0029	     0.0000	 110.0	 1	     1.1500	     0.8500;
	1901	 1	 0.00	 0.00	 0.0	 0.0	 6	     1.0229	     0.0000	 110.0	 1	     1.1500	     0.8500;
	1921	 1	 0.00	 0.00	 0.0	 0.0	 3	     0.9985	     0.0000	 110.0	 1	     1.1500	     0.8500;
	1931	 1	 0.00	 0.00	 0.0	 0.0	 9	     1.0081	     0.0000	 110.0	 1	     1.1500	     0.8500;
	1941	 1	 0.00	 0.00	 0.0	 0.0	 8	     1.0000	     0.0000	 110.0	 1	     1.1500	     0.8500;
	1951	 1	 0.00	 0.00	 0.0	 0.0	 9	     1.0287	     0.0000	 110.0	 1	     1.1500	     0.8500;
	1961	 1	 0.00	 0.00	 0.0	 0.0	 3	     0.9982	     0.0000	 110.0	 1	     1.1500	     0.8500;
	1971	 1	 0.00	 0.00	 0.0	 0.0	 7	     1.0000	     0.0000	 110.0	 1	     1.1500	     0.8500;
	1981	 1	 0.00	 0.00	 0.0	 0.0	 9	     1.0008	     0.0000	 110.0	 1	     1.1500	     0.8500;
	1991	 1	 0.00	 0.00	 0.0	 0.0	 6	     1.0113	     0.0000	 110.0	 1	     1.1500	     0.8500;
	2001	 1	 0.00	 0.00	 0.0	 0.0	 5	     1.0047	     0.0000	 110.0	 1	     1.1500	     0.8500;
	2002	 1	 0.00	 0.00	 0.0	 0.0	 5	     1.0068	     0.0000	 220.0	 1	     1.1500	     0.8500;
	2021	 1	 0.00	 0.00	 0.0	 0.0	 1	     0.9973	     0.0000	 110.0	 1	     1.1500	     0.8500;
	2041	 1	 0.00	 0.00	 0.0	 0.0	 2	     1.0190	     0.0000	 110.0	 1	     1.1500	     0.8500;
	2042	 1	 0.00	 0.00	 0.0	 0.0	 2	     1.0279	     0.0000	 220.0	 1	     1.1500	     0.8500;
	2052	 1	 0.00	 0.00	 0.0	 0.0	 2	     1.0279	     0.0000	 220.0	 1	     1.1500	     0.8500;
	2081	 4	 0.0	 0.0	 0.0	 0.0	 3	     1.0000	     0.0000	 110.0	 1	     1.1500	     0.8500;
	2101	 1	 0.00	 0.00	 0.0	 0.0	 10	     1.0316	     0.0000	 110.0	 1	     1.1500	     0.8500;
	2121	 1	 0.00	 0.00	 0.0	 0.0	 4	     1.0080	     0.0000	 110.0	 1	     1.1500	     0.8500;
	2131	 1	 0.00	 0.00	 0.0	 0.0	 3	     1.0059	     0.0000	 110.0	 1	     1.1500	     0.8500;
	2141	 1	 0.00	 0.00	 0.0	 0.0	 5	     1.0028	     0.0000	 110.0	 1	     1.1500	     0.8500;
	2161	 1	 0.00	 0.00	 0.0	 0.0	 5	     0.9949	     0.0000	 110.0	 1	     1.1500	     0.8500;
	2181	 1	 0.00	 0.00	 0.0	 0.0	 10	     1.0198	     0.0000	 110.0	 1	     1.1500	     0.8500;
	2202	 1	 0.00	 0.00	 0.0	 0.0	 2	     1.0163	     0.0000	 220.0	 1	     1.1500	     0.8500;
	2204	 1	 0.00	 0.00	 0.0	 0.0	 2	     1.0384	     0.0000	 380.0	 1	     1.1500	     0.8500;
	2221	 1	 0.00	 0.00	 0.0	 0.0	 3	     0.9948	     0.0000	 110.0	 1	     1.1500	     0.8500;
	2231	 1	 0.00	 0.00	 0.0	 0.0	 4	     1.0132	     0.0000	 110.0	 1	     1.1500	     0.8500;
	2241	 1	 0.00	 0.00	 0.0	 0.0	 5	     1.0010	     0.0000	 110.0	 1	     1.1500	     0.8500;
	2251	 1	 0.00	 0.00	 0.0	 0.0	 1	     1.0355	     0.0000	 110.0	 1	     1.1500	     0.8500;
	2261	 1	 0.00	 0.00	 0.0	 0.0	 8	     1.0106	     0.0000	 110.0	 1	     1.1500	     0.8500;
	2281	 1	 0.00	 0.00	 0.0	 0.0	 9	     1.0277	     0.0000	 110.0	 1	     1.1500	     0.8500;
	2301	 1	 0.00	 0.00	 0.0	 0.0	 8	     1.0128	     0.0000	 110.0	 1	     1.1500	     0.8500;
	2321	 1	 0.00	 0.00	 0.0	 0.0	 9	     1.0203	     0.0000	 110.0	 1	     1.1500	     0.8500;
	2361	 1	 0.00	 0.00	 0.0	 0.0	 4	     1.0099	     0.0000	 110.0	 1	     1.1500	     0.8500;
	2481	 1	 0.00	 0.00	 0.0	 0.0	 2	     1.0058	     0.0000	 110.0	 1	     1.1500	     0.8500;
	2491	 1	 0.00	 0.00	 0.0	 0.0	 2	     1.0058	     0.0000	 110.0	 1	     1.1500	     0.8500;
	2521	 1	 0.00	 0.00	 0.0	 0.0	 9	     1.0066	     0.0000	 110.0	 1	     1.1500	     0.8500;
	2522	 1	 0.00	 0.00	 0.0	 0.0	 9	     1.0210	     0.0000	 220.0	 1	     1.1500	     0.8500;
	2541	 1	 0.00	 0.00	 0.0	 0.0	 1	     1.0224	     0.0000	 110.0	 1	     1.1500	     0.8500;
	2551	 1	 0.00	 0.00	 0.0	 0.0	 1	     1.0198	     0.0000	 110.0	 1	     1.1500	     0.8500;
	2561	 1	 0.00	 0.00	 0.0	 0.0	 2	     1.0333	     0.0000	 110.0	 1	     1.1500	     0.8500;
	2562	 1	 0.00	 0.00	 0.0	 0.0	 2	     1.0290	     0.0000	 220.0	 1	     1.1500	     0.8500;
	2563	 1	 0.00	 0.00	 0.0	 0.0	 2	     1.0290	     0.0000	 220.0	 1	     1.1500	     0.8500;
	2571	 1	 0.00	 0.00	 0.0	 0.0	 2	     1.0353	     0.0000	 110.0	 1	     1.1500	     0.8500;
	2581	 1	 0.00	 0.00	 0.0	 0.0	 2	     1.0181	     0.0000	 110.0	 1	     1.1500	     0.8500;
	2671	 1	 0.00	 0.00	 0.0	 0.0	 9	     0.9990	     0.0000	 110.0	 1	     1.1500	     0.8500;
	2681	 1	 0.00	 0.00	 0.0	 0.0	 9	     1.0036	     0.0000	 110.0	 1	     1.1500	     0.8500;
	2701	 1	 0.00	 0.00	 0.0	 0.0	 1	     1.0332	     0.0000	 110.0	 1	     1.1500	     0.8500;
	2721	 1	 0.00	 0.00	 0.0	 0.0	 2	     1.0109	     0.0000	 110.0	 1	     1.1500	     0.8500;
	2731	 1	 0.00	 0.00	 0.0	 0.0	 7	     0.9999	     0.0000	 110.0	 1	     1.1500	     0.8500;
	2741	 1	 0.00	 0.00	 0.0	 0.0	 6	     1.0069	     0.0000	 110.0	 1	     1.1500	     0.8500;
	2742	 1	 0.00	 0.00	 0.0	 0.0	 6	     1.0086	     0.0000	 220.0	 1	     1.1500	     0.8500;
	2761	 1	 0.00	 0.00	 0.0	 0.0	 1	     1.0355	     0.0000	 110.0	 1	     1.1500	     0.8500;
	2771	 1	 0.00	 0.00	 0.0	 0.0	 7	     1.0018	     0.0000	 110.0	 1	     1.1500	     0.8500;
	2780	 1	 0.00	 0.00	 0.0	 0.0	 9	     1.0243	     0.0000	 110.0	 1	     1.1500	     0.8500;
	2781	 1	 0.00	 0.00	 0.0	 0.0	 9	     1.0243	     0.0000	 110.0	 1	     1.1500	     0.8500;
	2801	 1	 0.00	 0.00	 0.0	 0.0	 9	     1.0082	     0.0000	 110.0	 1	     1.1500	     0.8500;
	2821	 1	 0.00	 0.00	 0.0	 0.0	 9	     0.9997	     0.0000	 110.0	 1	     1.1500	     0.8500;
	2841	 1	 0.00	 0.00	 0.0	 0.0	 10	     1.0184	     0.0000	 110.0	 1	     1.1500	     0.8500;
	2842	 1	 0.00	 0.00	 0.0	 0.0	 10	     1.0212	     0.0000	 220.0	 1	     1.1500	     0.8500;
	2852	 1	 0.00	 0.00	 0.0	 0.0	 3	     0.9956	     0.0000	 220.0	 1	     1.1500	     0.8500;
	2861	 1	 0.00	 0.00	 0.0	 0.0	 1	     0.9951	     0.0000	 110.0	 1	     1.1500	     0.8500;
	2881	 1	 0.00	 0.00	 0.0	 0.0	 3	     1.0056	     0.0000	 110.0	 1	     1.1500	     0.8500;
	2941	 1	 0.00	 0.00	 0.0	 0.0	 1	     1.0226	     0.0000	 110.0	 1	     1.1500	     0.8500;
	2951	 1	 0.00	 0.00	 0.0	 0.0	 1	     1.0198	     0.0000	 110.0	 1	     1.1500	     0.8500;
	2962	 1	 0.00	 0.00	 0.0	 0.0	 2	     1.0285	     0.0000	 220.0	 1	     1.1500	     0.8500;
	2972	 1	 0.00	 0.00	 0.0	 0.0	 2	     1.0280	     0.0000	 220.0	 1	     1.1500	     0.8500;
	3061	 1	 0.00	 0.00	 0.0	 0.0	 3	     0.9961	     0.0000	 110.0	 1	     1.1500	     0.8500;
	3081	 1	 0.00	 0.00	 0.0	 0.0	 2	     1.0198	     0.0000	 110.0	 1	     1.1500	     0.8500;
	3082	 1	 0.00	 0.00	 0.0	 0.0	 2	     1.0187	     0.0000	 220.0	 1	     1.1500	     0.8500;
	3091	 1	 0.00	 0.00	 0.0	 0.0	 2	     0.9976	     0.0000	 110.0	 1	     1.1500	     0.8500;
	3101	 1	 0.00	 0.00	 0.0	 0.0	 5	     0.9979	     0.0000	 110.0	 1	     1.1500	     0.8500;
	3122	 1	 0.00	 0.00	 0.0	 0.0	 2	     1.0137	     0.0000	 220.0	 1	     1.1500	     0.8500;
	3200	 1	 0.00	 0.00	 0.0	 0.0	 3	     1.0006	     0.0000	 110.0	 1	     1.1500	     0.8500;
	3201	 1	 0.00	 0.00	 0.0	 0.0	 3	     0.9991	     0.0000	 110.0	 1	     1.1500	     0.8500;
	3202	 1	 0.00	 0.00	 0.0	 0.0	 3	     1.0006	     0.0000	 220.0	 1	     1.1500	     0.8500;
	3203	 1	 0.00	 0.00	 0.0	 0.0	 3	     1.0006	     0.0000	 220.0	 1	     1.1500	     0.8500;
	3209	 1	 0.00	 0.00	 0.0	 0.0	 3	     0.9991	     0.0000	 110.0	 1	     1.1500	     0.8500;
	3221	 1	 0.00	 0.00	 0.0	 0.0	 3	     0.9968	     0.0000	 110.0	 1	     1.1500	     0.8500;
	3241	 1	 0.00	 0.00	 0.0	 0.0	 8	     1.0050	     0.0000	 110.0	 1	     1.1500	     0.8500;
	3261	 1	 0.00	 0.00	 0.0	 0.0	 6	     1.0112	     0.0000	 110.0	 1	     1.1500	     0.8500;
	3281	 1	 0.00	 0.00	 0.0	 0.0	 7	     1.0109	     0.0000	 110.0	 1	     1.1500	     0.8500;
	3282	 1	 0.00	 0.00	 0.0	 0.0	 7	     1.0044	     0.0000	 220.0	 1	     1.1500	     0.8500;
	3301	 1	 0.00	 0.00	 0.0	 0.0	 7	     1.0012	     0.0000	 110.0	 1	     1.1500	     0.8500;
	3321	 1	 0.00	 0.00	 0.0	 0.0	 10	     1.0129	     0.0000	 110.0	 1	     1.1500	     0.8500;
	3341	 1	 0.00	 0.00	 0.0	 0.0	 6	     1.0245	     0.0000	 110.0	 1	     1.1500	     0.8500;
	3342	 1	 0.00	 0.00	 0.0	 0.0	 6	     1.0075	     0.0000	 220.0	 1	     1.1500	     0.8500;
	3361	 1	 0.00	 0.00	 0.0	 0.0	 9	     1.0200	     0.0000	 110.0	 1	     1.1500	     0.8500;
	3381	 1	 0.00	 0.00	 0.0	 0.0	 8	     1.0109	     0.0000	 110.0	 1	     1.1500	     0.8500;
	3401	 1	 0.00	 0.00	 0.0	 0.0	 5	     1.0046	     0.0000	 110.0	 1	     1.1500	     0.8500;
	3421	 1	 0.00	 0.00	 0.0	 0.0	 1	     1.0353	     0.0000	 110.0	 1	     1.1500	     0.8500;
	3431	 1	 0.00	 0.00	 0.0	 0.0	 1	     0.9949	     0.0000	 110.0	 1	     1.1500	     0.8500;
	3501	 1	 0.00	 0.00	 0.0	 0.0	 9	     1.0000	     0.0000	 110.0	 1	     1.1500	     0.8500;
	3521	 1	 0.00	 0.00	 0.0	 0.0	 10	     1.0373	     0.0000	 110.0	 1	     1.1500	     0.8500;
	3522	 1	 0.00	 0.00	 0.0	 0.0	 10	     1.0251	     0.0000	 220.0	 1	     1.1500	     0.8500;
	3541	 1	 0.00	 0.00	 0.0	 0.0	 7	     1.0073	     0.0000	 110.0	 1	     1.1500	     0.8500;
	3561	 1	 0.00	 0.00	 0.0	 0.0	 10	     1.0196	     0.0000	 110.0	 1	     1.1500	     0.8500;
	3581	 1	 0.00	 0.00	 0.0	 0.0	 9	     1.0200	     0.0000	 110.0	 1	     1.1500	     0.8500;
	3601	 1	 0.00	 0.00	 0.0	 0.0	 3	     0.9964	     0.0000	 110.0	 1	     1.1500	     0.8500;
	3611	 1	 0.00	 0.00	 0.0	 0.0	 3	     0.9964	     0.0000	 110.0	 1	     1.1500	     0.8500;
	3621	 1	 0.00	 0.00	 0.0	 0.0	 5	     1.0000	     0.0000	 110.0	 1	     1.1500	     0.8500;
	3641	 1	 0.00	 0.00	 0.0	 0.0	 6	     1.0117	     0.0000	 110.0	 1	     1.1500	     0.8500;
	3642	 1	 0.00	 0.00	 0.0	 0.0	 6	     1.0113	     0.0000	 220.0	 1	     1.1500	     0.8500;
	3651	 1	 0.00	 0.00	 0.0	 0.0	 5	     1.0117	     0.0000	 110.0	 1	     1.1500	     0.8500;
	3751	 1	 0.00	 0.00	 0.0	 0.0	 1	     1.0228	     0.0000	 110.0	 1	     1.1500	     0.8500;
	3761	 1	 0.00	 0.00	 0.0	 0.0	 1	     1.0178	     0.0000	 110.0	 1	     1.1500	     0.8500;
	3781	 1	 0.00	 0.00	 0.0	 0.0	 1	     1.0332	     0.0000	 110.0	 1	     1.1500	     0.8500;
	3801	 1	 0.00	 0.00	 0.0	 0.0	 3	     0.9984	     0.0000	 110.0	 1	     1.1500	     0.8500;
	3821	 1	 0.00	 0.00	 0.0	 0.0	 10	     1.0261	     0.0000	 110.0	 1	     1.1500	     0.8500;
	3841	 1	 0.00	 0.00	 0.0	 0.0	 2	     1.0114	     0.0000	 110.0	 1	     1.1500	     0.8500;
	3842	 1	 0.00	 0.00	 0.0	 0.0	 2	     1.0173	     0.0000	 220.0	 1	     1.1500	     0.8500;
	3851	 1	 0.00	 0.00	 0.0	 0.0	 2	     1.0161	     0.0000	 110.0	 1	     1.1500	     0.8500;
	3852	 1	 0.00	 0.00	 0.0	 0.0	 2	     1.0177	     0.0000	 220.0	 1	     1.1500	     0.8500;
	3861	 1	 0.00	 0.00	 0.0	 0.0	 1	     1.0231	     0.0000	 110.0	 1	     1.1500	     0.8500;
	3871	 1	 0.00	 0.00	 0.0	 0.0	 1	     1.0192	     0.0000	 110.0	 1	     1.1500	     0.8500;
	3881	 1	 0.00	 0.00	 0.0	 0.0	 3	     0.9990	     0.0000	 110.0	 1	     1.1500	     0.8500;
	3901	 1	 0.00	 0.00	 0.0	 0.0	 7	     1.0043	     0.0000	 110.0	 1	     1.1500	     0.8500;
	3934	 1	 0.00	 0.00	 0.0	 0.0	 4	     1.0623	     0.0000	 380.0	 1	     1.1500	     0.8500;
	3941	 1	 0.00	 0.00	 0.0	 0.0	 4	     1.0131	     0.0000	 110.0	 1	     1.1500	     0.8500;
	3942	 1	 0.00	 0.00	 0.0	 0.0	 4	     1.0205	     0.0000	 220.0	 1	     1.1500	     0.8500;
	3944	 1	 0.00	 0.00	 0.0	 0.0	 4	     1.0623	     0.0000	 380.0	 1	     1.1500	     0.8500;
	3954	 1	 0.00	 0.00	 0.0	 0.0	 4	     0.9964	     0.0000	 380.0	 1	     1.1500	     0.8500;
	3961	 1	 0.00	 0.00	 0.0	 0.0	 3	     0.9965	     0.0000	 110.0	 1	     1.1500	     0.8500;
	3981	 1	 0.00	 0.00	 0.0	 0.0	 7	     1.0041	     0.0000	 110.0	 1	     1.1500	     0.8500;
	3991	 1	 0.00	 0.00	 0.0	 0.0	 7	     1.0041	     0.0000	 110.0	 1	     1.1500	     0.8500;
	4001	 1	 0.00	 0.00	 0.0	 0.0	 9	     1.0034	     0.0000	 110.0	 1	     1.1500	     0.8500;
	4021	 1	 0.00	 0.00	 0.0	 0.0	 3	     0.9975	     0.0000	 110.0	 1	     1.1500	     0.8500;
	4041	 1	 0.00	 0.00	 0.0	 0.0	 9	     1.0099	     0.0000	 110.0	 1	     1.1500	     0.8500;
	4061	 1	 0.00	 0.00	 0.0	 0.0	 10	     1.0335	     0.0000	 110.0	 1	     1.1500	     0.8500;
	4071	 1	 0.00	 0.00	 0.0	 0.0	 9	     1.0219	     0.0000	 110.0	 1	     1.1500	     0.8500;
	4081	 1	 0.00	 0.00	 0.0	 0.0	 8	     1.0042	     0.0000	 110.0	 1	     1.1500	     0.8500;
	4101	 1	 0.00	 0.00	 0.0	 0.0	 1	     1.0353	     0.0000	 110.0	 1	     1.1500	     0.8500;
...
];

%% generator data
%	bus	Pg	Qg	Qmax	Qmin	Vg	mBase	status	Pmax	Pmin	Pc1	Pc2	Qc1min	Qc1max	Qc2min	Qc2max	ramp_agc	ramp_10	ramp_30	ramp_q	apf
mpc.gen = [
	10271	 21.0	 0.0	 15.0	 -12.0	 1.0	 34.0	 0	 23	 2.5	 0.0	 0.0	 0.0	 0.0	 0.0	 0.0	 0.0	 0.0	 0.0	 0.0	 0.0; % PEL
	10272	 22.0	 0.0	 47.0	 -47.0	 1.0	 34.0	 0	 94	 2.5	 0.0	 0.0	 0.0	 0.0	 0.0	 0.0	 0.0	 0.0	 0.0	 0.0	 0.0; % NG
	10273	 19.0	 0.0	 30.0	 -30.0	 1.0	 34.0	 0	 60	 2.5	 0.0	 0.0	 0.0	 0.0	 0.0	 0.0	 0.0	 0.0	 0.0	 0.0	 0.0; % COW
	10274	 24.0	 0.0	 15.0	 -13.0	 1.0	 34.0	 0	 26	 2.5	 0.0	 0.0	 0.0	 0.0	 0.0	 0.0	 0.0	 0.0	 0.0	 0.0	 0.0; % NG
	10275	 5.0	 5.0	 6.0	 -6.0	 1.04	 8.35	 1	 12	 0.0	 0.0	 0.0	 0.0	 0.0	 0.0	 0.0	 0.0	 0.0	 0.0	 0.0	 0.0; % PEL
	10276	 2.0	 1.0	 1.2	 -1.2	 1.04	 0.85	 1	 2	 0.0	 0.0	 0.0	 0.0	 0.0	 0.0	 0.0	 0.0	 0.0	 0.0	 0.0	 0.0; % PEL
	10470	 222.0	 -49.849	 354.0	 -354.0	 1.0	 500.0	 0	 708	 111.0	 0.0	 0.0	 0.0	 0.0	 0.0	 0.0	 0.0	 0.0	 0.0	 0.0	 0.0; % COW
	10471	 270.0	 0.0	 232.0	 -232.0	 1.0	 318.8	 0	 464	 20.0	 0.0	 0.0	 0.0	 0.0	 0.0	 0.0	 0.0	 0.0	 0.0	 0.0	 0.0; % NG
	10472	 90.0	 0.0	 60.0	 -56.0	 1.0	 100.9	 0	 112	 6.5	 0.0	 0.0	 0.0	 0.0	 0.0	 0.0	 0.0	 0.0	 0.0	 0.0	 0.0; % NG
	10473	 90.0	 0.0	 85.0	 -85.0	 1.0	 100.9	 0	 170	 6.5	 0.0	 0.0	 0.0	 0.0	 0.0	 0.0	 0.0	 0.0	 0.0	 0.0	 0.0; % NG
	10474	 90.0	 0.0	 60.0	 -53.0	 1.0	 100.9	 0	 106	 6.5	 0.0	 0.0	 0.0	 0.0	 0.0	 0.0	 0.0	 0.0	 0.0	 0.0	 0.0; % NG
	10671	 10.0	 -2.0	 17.0	 -17.0	 1.04	 4.8	 1	 34	 0.0	 0.0	 0.0	 0.0	 0.0	 0.0	 0.0	 0.0	 0.0	 0.0	 0.0	 0.0; % NG
	10672	 11.0	 -1.0	 13.0	 -13.0	 1.04	 6.0	 1	 26	 0.0	 0.0	 0.0	 0.0	 0.0	 0.0	 0.0	 0.0	 0.0	 0.0	 0.0	 0.0; % NG
	10673	 4.0	 -2.0	 6.0	 -6.0	 1.04	 1.2	 1	 11	 0.0	 0.0	 0.0	 0.0	 0.0	 0.0	 0.0	 0.0	 0.0	 0.0	 0.0	 0.0; % PEL
	10674	 1.38	 -1.77	 3.0	 -3.0	 1.04	 4.6	 0	 5	 0.0	 0.0	 0.0	 0.0	 0.0	 0.0	 0.0	 0.0	 0.0	 0.0	 0.0	 0.0; % NG
	11204	 1.0	 0.0	 1.0	 -1.0	 1.0	 1.6	 0	 1	 0.0	 0.0	 0.0	 0.0	 0.0	 0.0	 0.0	 0.0	 0.0	 0.0	 0.0	 0.0; % NG
	11271	 25.0	 -12.0	 26.0	 -26.0	 1.04	 28.0	 1	 52	 0.0	 0.0	 0.0	 0.0	 0.0	 0.0	 0.0	 0.0	 0.0	 0.0	 0.0	 0.0; % COW
	12371	 3.0	 1.0	 7.0	 -7.0	 1.0	 32.0	 1	 14	 0.0	 0.0	 0.0	 0.0	 0.0	 0.0	 0.0	 0.0	 0.0	 0.0	 0.0	 0.0; % COW
	12372	 61.0	 7.0	 98.0	 -98.0	 1.0	 10.0	 1	 196	 0.0	 0.0	 0.0	 0.0	 0.0	 0.0	 0.0	 0.0	 0.0	 0.0	 0.0	 0.0; % COW
	12571	 5.0	 19.0	 22.8	 -22.8	 1.0	 25.05	 1	 14	 0.0	 0.0	 0.0	 0.0	 0.0	 0.0	 0.0	 0.0	 0.0	 0.0	 0.0	 0.0; % PEL
	12572	 4.0	 -2.0	 8.0	 -8.0	 1.0	 3.34	 1	 15	 0.0	 0.0	 0.0	 0.0	 0.0	 0.0	 0.0	 0.0	 0.0	 0.0	 0.0	 0.0; % PEL
	12573	 5.0	 3.0	 12.0	 -12.0	 1.0	 10.02	 1	 24	 0.0	 0.0	 0.0	 0.0	 0.0	 0.0	 0.0	 0.0	 0.0	 0.0	 0.0	 0.0; % PEL
	12872	 5.0	 1.0	 7.0	 -7.0	 1.0	 9.2	 1	 14	 0.0	 0.0	 0.0	 0.0	 0.0	 0.0	 0.0	 0.0	 0.0	 0.0	 0.0	 0.0; % PEL
	12873	 10.0	 3.0	 15.0	 -15.0	 1.0	 20.7	 1	 29	 0.0	 0.0	 0.0	 0.0	 0.0	 0.0	 0.0	 0.0	 0.0	 0.0	 0.0	 0.0; % NG
	12874	 6.0	 3.0	 9.0	 -9.0	 1.0	 8.5	 1	 17	 0.0	 0.0	 0.0	 0.0	 0.0	 0.0	 0.0	 0.0	 0.0	 0.0	 0.0	 0.0; % NG
	13434	 4.3	 0.0	 3.0	 -3.0	 1.0	 4.5	 0	 6	 0.0	 0.0	 0.0	 0.0	 0.0	 0.0	 0.0	 0.0	 0.0	 0.0	 0.0	 0.0; % NG
	13471	 2.0	 -1.0	 3.0	 -3.0	 1.0	 0.66	 1	 5	 0.0	 0.0	 0.0	 0.0	 0.0	 0.0	 0.0	 0.0	 0.0	 0.0	 0.0	 0.0; % PEL
	13472	 5.0	 -1.0	 4.0	 -4.0	 1.0	 2.7	 1	 8	 0.0	 0.0	 0.0	 0.0	 0.0	 0.0	 0.0	 0.0	 0.0	 0.0	 0.0	 0.0; % PEL
	13473	 6.0	 1.0	 4.0	 -4.0	 1.0	 10.0	 1	 7	 0.0	 0.0	 0.0	 0.0	 0.0	 0.0	 0.0	 0.0	 0.0	 0.0	 0.0	 0.0; % NG
	13475	 5.0	 -1.0	 11.0	 -11.0	 1.0	 7.65	 1	 21	 0.0	 0.0	 0.0	 0.0	 0.0	 0.0	 0.0	 0.0	 0.0	 0.0	 0.0	 0.0; % COW
	13476	 5.0	 -2.0	 8.0	 -8.0	 1.0	 11.5	 1	 15	 0.0	 0.0	 0.0	 0.0	 0.0	 0.0	 0.0	 0.0	 0.0	 0.0	 0.0	 0.0; % NG
	13477	 2.0	 -1.0	 2.0	 -2.0	 1.0	 2.7	 1	 3	 0.0	 0.0	 0.0	 0.0	 0.0	 0.0	 0.0	 0.0	 0.0	 0.0	 0.0	 0.0; % COW
	13479	 3.0	 1.0	 4.0	 -4.0	 1.0	 3.4	 1	 8	 0.0	 0.0	 0.0	 0.0	 0.0	 0.0	 0.0	 0.0	 0.0	 0.0	 0.0	 0.0; % PEL
	14073	 4.0	 -5.0	 6.0	 -6.0	 1.04	 7.611	 1	 7	 0.0	 0.0	 0.0	 0.0	 0.0	 0.0	 0.0	 0.0	 0.0	 0.0	 0.0	 0.0; % PEL
	14471	 2.0	 1.0	 4.0	 -4.0	 1.04	 4.0	 1	 7	 0.0	 0.0	 0.0	 0.0	 0.0	 0.0	 0.0	 0.0	 0.0	 0.0	 0.0	 0.0; % PEL
	14472	 2.0	 1.0	 3.0	 -3.0	 1.0	 0.85	 1	 5	 0.0	 0.0	 0.0	 0.0	 0.0	 0.0	 0.0	 0.0	 0.0	 0.0	 0.0	 0.0; % NG
	14604	 4.8	 0.0	 10.0	 -10.0	 1.05	 7.0	 0	 20	 0.0	 0.0	 0.0	 0.0	 0.0	 0.0	 0.0	 0.0	 0.0	 0.0	 0.0	 0.0; % NG
	14871	 5.0	 -1.0	 9.0	 -9.0	 1.04	 4.6	 1	 17	 0.0	 0.0	 0.0	 0.0	 0.0	 0.0	 0.0	 0.0	 0.0	 0.0	 0.0	 0.0; % PEL
	15573	 21.0	 3.0	 28.0	 -28.0	 1.04	 23.0	 1	 56	 0.0	 0.0	 0.0	 0.0	 0.0	 0.0	 0.0	 0.0	 0.0	 0.0	 0.0	 0.0; % PEL
	15771	 4.0	 -2.0	 9.0	 -9.0	 1.0	 1.98	 1	 18	 0.0	 0.0	 0.0	 0.0	 0.0	 0.0	 0.0	 0.0	 0.0	 0.0	 0.0	 0.0; % PEL
	15772	 4.0	 -4.0	 4.8	 -4.8	 1.0	 3.0	 1	 4	 0.0	 0.0	 0.0	 0.0	 0.0	 0.0	 0.0	 0.0	 0.0	 0.0	 0.0	 0.0; % PEL
	16371	 5.0	 -2.0	 9.0	 -9.0	 1.0	 3.4	 1	 18	 0.0	 0.0	 0.0	 0.0	 0.0	 0.0	 0.0	 0.0	 0.0	 0.0	 0.0	 0.0; % PEL
	16372	 5.0	 -2.0	 9.0	 -9.0	 1.0	 3.4	 1	 18	 0.0	 0.0	 0.0	 0.0	 0.0	 0.0	 0.0	 0.0	 0.0	 0.0	 0.0	 0.0; % NG
	16373	 5.0	 1.0	 3.0	 -3.0	 1.0	 6.8	 1	 6	 0.0	 0.0	 0.0	 0.0	 0.0	 0.0	 0.0	 0.0	 0.0	 0.0	 0.0	 0.0; % PEL
	16374	 4.0	 1.0	 3.0	 -3.0	 1.0	 7.65	 1	 6	 0.0	 0.0	 0.0	 0.0	 0.0	 0.0	 0.0	 0.0	 0.0	 0.0	 0.0	 0.0; % COW
	16375	 4.0	 -2.0	 5.0	 -5.0	 1.0	 4.25	 1	 9	 0.0	 0.0	 0.0	 0.0	 0.0	 0.0	 0.0	 0.0	 0.0	 0.0	 0.0	 0.0; % NG
	16376	 5.0	 -2.0	 3.0	 -3.0	 1.0	 5.1	 1	 6	 0.0	 0.0	 0.0	 0.0	 0.0	 0.0	 0.0	 0.0	 0.0	 0.0	 0.0	 0.0; % NG
	16377	 4.0	 3.0	 7.0	 -7.0	 1.0	 9.2	 1	 14	 0.0	 0.0	 0.0	 0.0	 0.0	 0.0	 0.0	 0.0	 0.0	 0.0	 0.0	 0.0; % NG
	16379	 1.0	 -1.0	 1.2	 -1.2	 1.0	 0.323	 1	 2	 0.0	 0.0	 0.0	 0.0	 0.0	 0.0	 0.0	 0.0	 0.0	 0.0	 0.0	 0.0; % NG
	16571	 9.0	 21.0	 25.2	 -25.2	 1.0	 40.0	 1	 20	 0.0	 0.0	 0.0	 0.0	 0.0	 0.0	 0.0	 0.0	 0.0	 0.0	 0.0	 0.0; % NG
	16670	 3.0	 -4.0	 4.8	 -4.8	 1.0	 4.5	 1	 4	 0.0	 0.0	 0.0	 0.0	 0.0	 0.0	 0.0	 0.0	 0.0	 0.0	 0.0	 0.0; % NG
	16671	 2.0	 -1.0	 2.0	 -2.0	 1.04	 3.4	 1	 4	 0.0	 0.0	 0.0	 0.0	 0.0	 0.0	 0.0	 0.0	 0.0	 0.0	 0.0	 0.0; % COW
	16672	 1.0	 -1.0	 1.2	 -1.2	 1.04	 1.7	 1	 1	 0.0	 0.0	 0.0	 0.0	 0.0	 0.0	 0.0	 0.0	 0.0	 0.0	 0.0	 0.0; % PEL
	16674	 3.0	 -8.0	 9.6	 -9.6	 1.04	 18.7	 1	 11	 0.0	 0.0	 0.0	 0.0	 0.0	 0.0	 0.0	 0.0	 0.0	 0.0	 0.0	 0.0; % PEL
	16675	 3.0	 -6.0	 7.2	 -7.2	 1.04	 8.0	 1	 10	 0.0	 0.0	 0.0	 0.0	 0.0	 0.0	 0.0	 0.0	 0.0	 0.0	 0.0	 0.0; % COW
	16873	 8.0	 0.0	 13.0	 -13.0	 1.0	 11.5	 0	 26	 1.0	 0.0	 0.0	 0.0	 0.0	 0.0	 0.0	 0.0	 0.0	 0.0	 0.0	 0.0; % NG
	17073	 22.5	 0.0	 38.0	 -38.0	 1.0	 30.0	 0	 75	 2.5	 0.0	 0.0	 0.0	 0.0	 0.0	 0.0	 0.0	 0.0	 0.0	 0.0	 0.0; % PEL
	17074	 22.5	 0.0	 40.0	 -40.0	 1.0	 35.5	 0	 80	 2.5	 0.0	 0.0	 0.0	 0.0	 0.0	 0.0	 0.0	 0.0	 0.0	 0.0	 0.0; % COW
	17075	 2.0	 -1.0	 1.2	 -1.2	 1.0	 1.98	 1	 2	 0.0	 0.0	 0.0	 0.0	 0.0	 0.0	 0.0	 0.0	 0.0	 0.0	 0.0	 0.0; % PEL
	17077	 2.0	 -1.0	 2.0	 -2.0	 1.0	 1.2	 1	 3	 0.0	 0.0	 0.0	 0.0	 0.0	 0.0	 0.0	 0.0	 0.0	 0.0	 0.0	 0.0; % NG
	17671	 10.0	 0.0	 23.0	 -23.0	 1.0	 12.5	 0	 45	 1.5	 0.0	 0.0	 0.0	 0.0	 0.0	 0.0	 0.0	 0.0	 0.0	 0.0	 0.0; % NG
	17672	 10.0	 0.0	 12.0	 -12.0	 1.0	 12.5	 0	 24	 1.5	 0.0	 0.0	 0.0	 0.0	 0.0	 0.0	 0.0	 0.0	 0.0	 0.0	 0.0; % NG
	18471	 32.0	 16.0	 67.0	 -67.0	 1.04	 5.2	 1	 134	 0.0	 0.0	 0.0	 0.0	 0.0	 0.0	 0.0	 0.0	 0.0	 0.0	 0.0	 0.0; % NG
	19081	 2.0	 -2.0	 2.4	 -2.4	 1.04	 2.55	 1	 4	 0.0	 0.0	 0.0	 0.0	 0.0	 0.0	 0.0	 0.0	 0.0	 0.0	 0.0	 0.0; % NG
	19082	 2.0	 -1.0	 1.2	 -1.2	 1.04	 1.7	 1	 2	 0.0	 0.0	 0.0	 0.0	 0.0	 0.0	 0.0	 0.0	 0.0	 0.0	 0.0	 0.0; % PEL
	19083	 2.0	 -4.0	 5.0	 -5.0	 1.04	 6.9	 1	 9	 0.0	 0.0	 0.0	 0.0	 0.0	 0.0	 0.0	 0.0	 0.0	 0.0	 0.0	 0.0; % NG
	19084	 2.0	 -2.0	 2.4	 -2.4	 1.04	 4.6	 1	 2	 0.0	 0.0	 0.0	 0.0	 0.0	 0.0	 0.0	 0.0	 0.0	 0.0	 0.0	 0.0; % PEL
	19085	 50.0	 -3.0	 27.0	 -27.0	 1.04	 23.824	 1	 54	 0.0	 0.0	 0.0	 0.0	 0.0	 0.0	 0.0	 0.0	 0.0	 0.0	 0.0	 0.0; % PEL
	19317	 0.0	 -3.0	 6.0	 -6.0	 1.0	 6.0	 1	 0	 0.0	 0.0	 0.0	 0.0	 0.0	 0.0	 0.0	 0.0	 0.0	 0.0	 0.0	 0.0; % SYNC
	19371	 4.0	 1.0	 2.0	 -2.0	 1.0	 29.78	 1	 4	 0.0	 0.0	 0.0	 0.0	 0.0	 0.0	 0.0	 0.0	 0.0	 0.0	 0.0	 0.0; % NG
	19372	 4.0	 1.0	 3.0	 -3.0	 1.0	 11.05	 1	 6	 0.0	 0.0	 0.0	 0.0	 0.0	 0.0	 0.0	 0.0	 0.0	 0.0	 0.0	 0.0; % NG
	19471	 79.0	 37.0	 94.0	 -91.0	 1.0	 153.0	 1	 182	 30.0	 0.0	 0.0	 0.0	 0.0	 0.0	 0.0	 0.0	 0.0	 0.0	 0.0	 0.0; % COW
	19472	 58.274	 0.0	 137.0	 -137.0	 1.0	 66.625	 0	 274	 9.85	 0.0	 0.0	 0.0	 0.0	 0.0	 0.0	 0.0	 0.0	 0.0	 0.0	 0.0; % NG
	19473	 58.274	 0.0	 122.0	 -122.0	 1.0	 66.625	 0	 244	 9.85	 0.0	 0.0	 0.0	 0.0	 0.0	 0.0	 0.0	 0.0	 0.0	 0.0	 0.0; % NG
	19601	 117.0	 12.0	 142.0	 -142.0	 1.0	 6.5	 1	 284	 0.0	 0.0	 0.0	 0.0	 0.0	 0.0	 0.0	 0.0	 0.0	 0.0	 0.0	 0.0; % NG
	19771	 54.0	 11.0	 71.0	 -71.0	 1.0	 46.875	 1	 141	 0.0	 0.0	 0.0	 0.0	 0.0	 0.0	 0.0	 0.0	 0.0	 0.0	 0.0	 0.0; % NG
	19772	 19.0	 6.0	 37.0	 -37.0	 1.0	 8.5	 1	 73	 0.0	 0.0	 0.0	 0.0	 0.0	 0.0	 0.0	 0.0	 0.0	 0.0	 0.0	 0.0; % COW
	19773	 36.0	 5.0	 60.0	 -60.0	 1.0	 38.714	 1	 119	 0.0	 0.0	 0.0	 0.0	 0.0	 0.0	 0.0	 0.0	 0.0	 0.0	 0.0	 0.0; % PEL
	19971	 1.0	 -2.0	 6.7	 -6.7	 1.0	 20.7	 1	 1	 0.0	 0.0	 0.0	 0.0	 0.0	 0.0	 0.0	 0.0	 0.0	 0.0	 0.0	 0.0; % NG
	19972	 1.0	 -1.0	 2.0	 -2.0	 1.0	 2.3	 1	 4	 0.0	 0.0	 0.0	 0.0	 0.0	 0.0	 0.0	 0.0	 0.0	 0.0	 0.0	 0.0; % PEL
	19973	 1.0	 -1.0	 1.2	 -1.2	 1.0	 2.3	 1	 1	 0.0	 0.0	 0.0	 0.0	 0.0	 0.0	 0.0	 0.0	 0.0	 0.0	 0.0	 0.0; % PEL
	19974	 83.0	 5.0	 62.0	 -62.0	 1.0	 16.1	 1	 124	 0.0	 0.0	 0.0	 0.0	 0.0	 0.0	 0.0	 0.0	 0.0	 0.0	 0.0	 0.0; % COW
	21071	 4.0	 1.0	 5.0	 -5.0	 1.04	 0.85	 1	 9	 0.0	 0.0	 0.0	 0.0	 0.0	 0.0	 0.0	 0.0	 0.0	 0.0	 0.0	 0.0; % NG
	21371	 13.0	 5.0	 20.0	 -20.0	 1.0	 31.73	 1	 39	 0.0	 0.0	 0.0	 0.0	 0.0	 0.0	 0.0	 0.0	 0.0	 0.0	 0.0	 0.0; % COW
	21871	 1.0	 -1.0	 2.0	 -2.0	 1.0	 1.7	 1	 4	 0.0	 0.0	 0.0	 0.0	 0.0	 0.0	 0.0	 0.0	 0.0	 0.0	 0.0	 0.0; % PEL
	21872	 1.0	 -2.0	 2.4	 -2.4	 1.0	 2.7	 1	 1	 0.0	 0.0	 0.0	 0.0	 0.0	 0.0	 0.0	 0.0	 0.0	 0.0	 0.0	 0.0; % PEL
	22273	 5.0	 1.0	 12.0	 -12.0	 1.0	 4.0	 1	 24	 0.0	 0.0	 0.0	 0.0	 0.0	 0.0	 0.0	 0.0	 0.0	 0.0	 0.0	 0.0; % NG
	22274	 17.0	 5.0	 41.0	 -41.0	 1.0	 5.94	 1	 81	 0.0	 0.0	 0.0	 0.0	 0.0	 0.0	 0.0	 0.0	 0.0	 0.0	 0.0	 0.0; % NG
	22275	 3.0	 1.0	 3.0	 -3.0	 1.0	 4.25	 1	 5	 0.0	 0.0	 0.0	 0.0	 0.0	 0.0	 0.0	 0.0	 0.0	 0.0	 0.0	 0.0; % NG
	22276	 5.0	 2.0	 9.0	 -9.0	 1.0	 6.68	 1	 17	 0.0	 0.0	 0.0	 0.0	 0.0	 0.0	 0.0	 0.0	 0.0	 0.0	 0.0	 0.0; % NG
	22278	 16.0	 7.0	 11.0	 -11.0	 1.0	 4.62	 1	 22	 0.0	 0.0	 0.0	 0.0	 0.0	 0.0	 0.0	 0.0	 0.0	 0.0	 0.0	 0.0; % NG
	22292	 6.0	 0.0	 7.0	 -7.0	 1.0	 6.0	 0	 14	 0.0	 0.0	 0.0	 0.0	 0.0	 0.0	 0.0	 0.0	 0.0	 0.0	 0.0	 0.0; % NG
	22371	 5.0	 26.0	 31.2	 -31.2	 1.0	 59.5	 1	 8	 0.0	 0.0	 0.0	 0.0	 0.0	 0.0	 0.0	 0.0	 0.0	 0.0	 0.0	 0.0; % PEL
	22471	 3.0	 1.0	 6.0	 -6.0	 1.04	 2.55	 1	 12	 0.0	 0.0	 0.0	 0.0	 0.0	 0.0	 0.0	 0.0	 0.0	 0.0	 0.0	 0.0; % PEL
	22472	 3.0	 2.0	 4.0	 -4.0	 1.04	 4.25	 1	 8	 0.0	 0.0	 0.0	 0.0	 0.0	 0.0	 0.0	 0.0	 0.0	 0.0	 0.0	 0.0; % PEL
	22671	 52.1	 0.0	 34.0	 -34.0	 1.02	 62.0	 0	 67	 0.6	 0.0	 0.0	 0.0	 0.0	 0.0	 0.0	 0.0	 0.0	 0.0	 0.0	 0.0; % PEL
	22672	 52.1	 0.0	 32.6	 -32.0	 1.02	 62.0	 0	 63	 0.6	 0.0	 0.0	 0.0	 0.0	 0.0	 0.0	 0.0	 0.0	 0.0	 0.0	 0.0; % NG
	22871	 4.0	 1.0	 5.0	 -5.0	 1.0	 2.4	 1	 10	 0.0	 0.0	 0.0	 0.0	 0.0	 0.0	 0.0	 0.0	 0.0	 0.0	 0.0	 0.0; % PEL
	26771	 7.0	 2.0	 10.0	 -10.0	 1.0	 26.0	 1	 10	 0.0	 0.0	 0.0	 0.0	 0.0	 0.0	 0.0	 0.0	 0.0	 0.0	 0.0	 0.0; % NG
	26772	 11.0	 -3.0	 6.0	 -6.0	 1.0	 6.0	 1	 11	 3.0	 0.0	 0.0	 0.0	 0.0	 0.0	 0.0	 0.0	 0.0	 0.0	 0.0	 0.0; % PEL
	26773	 10.0	 4.0	 10.0	 -10.0	 1.0	 22.0	 1	 19	 0.0	 0.0	 0.0	 0.0	 0.0	 0.0	 0.0	 0.0	 0.0	 0.0	 0.0	 0.0; % NG
	26774	 12.0	 -3.0	 15.0	 -15.0	 1.0	 6.0	 1	 30	 3.0	 0.0	 0.0	 0.0	 0.0	 0.0	 0.0	 0.0	 0.0	 0.0	 0.0	 0.0; % NG
	27071	 1.0	 -1.0	 2.0	 -2.0	 1.0	 0.8	 1	 3	 0.0	 0.0	 0.0	 0.0	 0.0	 0.0	 0.0	 0.0	 0.0	 0.0	 0.0	 0.0; % NG
	27204	 4.0	 0.0	 9.0	 -9.0	 1.04	 5.0	 0	 17	 0.0	 0.0	 0.0	 0.0	 0.0	 0.0	 0.0	 0.0	 0.0	 0.0	 0.0	 0.0; % COW
	27361	 0.0	 -9.0	 12.3	 -12.3	 1.0	 12.3	 1	 0	 0.0	 0.0	 0.0	 0.0	 0.0	 0.0	 0.0	 0.0	 0.0	 0.0	 0.0	 0.0; % SYNC
	27371	 13.0	 8.0	 20.0	 -20.0	 1.0	 14.45	 1	 40	 0.0	 0.0	 0.0	 0.0	 0.0	 0.0	 0.0	 0.0	 0.0	 0.0	 0.0	 0.0; % COW
	27372	 12.0	 5.0	 14.0	 -14.0	 1.0	 18.75	 1	 28	 0.0	 0.0	 0.0	 0.0	 0.0	 0.0	 0.0	 0.0	 0.0	 0.0	 0.0	 0.0; % NG
	27471	 57.0	 0.0	 84.0	 -84.0	 1.0	 75.0	 0	 168	 12.5	 0.0	 0.0	 0.0	 0.0	 0.0	 0.0	 0.0	 0.0	 0.0	 0.0	 0.0; % NG
	27472	 51.8	 0.0	 40.0	 -26.0	 1.0	 75.0	 0	 52	 12.5	 0.0	 0.0	 0.0	 0.0	 0.0	 0.0	 0.0	 0.0	 0.0	 0.0	 0.0; % NG
	27473	 121.0	 0.0	 125.0	 -125.0	 1.0	 150.0	 0	 250	 15.0	 0.0	 0.0	 0.0	 0.0	 0.0	 0.0	 0.0	 0.0	 0.0	 0.0	 0.0; % NG
	27771	 53.0	 -7.0	 84.0	 -84.0	 1.0	 41.4	 1	 167	 0.0	 0.0	 0.0	 0.0	 0.0	 0.0	 0.0	 0.0	 0.0	 0.0	 0.0	 0.0; % NG
	27772	 5.0	 -1.0	 12.0	 -12.0	 1.0	 11.912	 1	 24	 0.0	 0.0	 0.0	 0.0	 0.0	 0.0	 0.0	 0.0	 0.0	 0.0	 0.0	 0.0; % NG
	27773	 5.0	 -1.0	 6.0	 -6.0	 1.0	 4.6	 1	 12	 0.0	 0.0	 0.0	 0.0	 0.0	 0.0	 0.0	 0.0	 0.0	 0.0	 0.0	 0.0; % PEL
	27774	 40.0	 16.0	 92.0	 -92.0	 1.0	 18.4	 1	 184	 0.0	 0.0	 0.0	 0.0	 0.0	 0.0	 0.0	 0.0	 0.0	 0.0	 0.0	 0.0; % PEL
	27871	 3.0	 2.0	 5.0	 -5.0	 1.0	 3.3	 1	 9	 0.0	 0.0	 0.0	 0.0	 0.0	 0.0	 0.0	 0.0	 0.0	 0.0	 0.0	 0.0; % PEL
	28071	 6.0	 -1.0	 10.0	 -10.0	 1.0	 15.0	 1	 19	 0.0	 0.0	 0.0	 0.0	 0.0	 0.0	 0.0	 0.0	 0.0	 0.0	 0.0	 0.0; % COW
	28271	 3.0	 1.0	 7.0	 -7.0	 1.04	 3.34	 1	 14	 0.0	 0.0	 0.0	 0.0	 0.0	 0.0	 0.0	 0.0	 0.0	 0.0	 0.0	 0.0; % PEL
	28571	 864.0	 31.0	 488.0	 -488.0	 1.0	 535.5	 1	 976	 55.05	 0.0	 0.0	 0.0	 0.0	 0.0	 0.0	 0.0	 0.0	 0.0	 0.0	 0.0; % NG
	28872	 16.0	 -2.0	 12.0	 -12.0	 1.04	 13.8	 1	 23	 0.0	 0.0	 0.0	 0.0	 0.0	 0.0	 0.0	 0.0	 0.0	 0.0	 0.0	 0.0; % NG
	28873	 16.0	 3.0	 27.0	 -27.0	 1.0	 18.4	 1	 54	 0.0	 0.0	 0.0	 0.0	 0.0	 0.0	 0.0	 0.0	 0.0	 0.0	 0.0	 0.0; % NG
	28874	 53.0	 24.0	 57.0	 -57.0	 1.0	 27.6	 1	 113	 0.0	 0.0	 0.0	 0.0	 0.0	 0.0	 0.0	 0.0	 0.0	 0.0	 0.0	 0.0; % PEL
	29671	 123.0	 0.0	 107.0	 -79.0	 1.0	 150.0	 0	 158	 20.0	 0.0	 0.0	 0.0	 0.0	 0.0	 0.0	 0.0	 0.0	 0.0	 0.0	 0.0; % NG
	29672	 226.0	 -187.0	 224.4	 -224.4	 1.0	 288.0	 1	 343	 69.0	 0.0	 0.0	 0.0	 0.0	 0.0	 0.0	 0.0	 0.0	 0.0	 0.0	 0.0; % NG
	29673	 400.0	 -170.0	 255.0	 -255.0	 1.0	 473.0	 0	 509	 97.0	 0.0	 0.0	 0.0	 0.0	 0.0	 0.0	 0.0	 0.0	 0.0	 0.0	 0.0; % COW
	30671	 15.0	 0.0	 23.0	 -23.0	 1.0	 21.4	 0	 45	 2.0	 0.0	 0.0	 0.0	 0.0	 0.0	 0.0	 0.0	 0.0	 0.0	 0.0	 0.0; % PEL
	30671	 4.0	 0.0	 8.0	 -8.0	 1.0	 5.7	 0	 15	 0.5	 0.0	 0.0	 0.0	 0.0	 0.0	 0.0	 0.0	 0.0	 0.0	 0.0	 0.0; % NG
	31071	 9.0	 4.0	 15.0	 -15.0	 1.0	 2.55	 1	 29	 0.0	 0.0	 0.0	 0.0	 0.0	 0.0	 0.0	 0.0	 0.0	 0.0	 0.0	 0.0; % PEL
	31074	 9.0	 4.0	 12.0	 -12.0	 1.04	 2.55	 1	 23	 0.0	 0.0	 0.0	 0.0	 0.0	 0.0	 0.0	 0.0	 0.0	 0.0	 0.0	 0.0; % COW
	31271	 166.0	 35.0	 295.0	 -105.0	 1.0	 500.0	 1	 209	 81.5	 0.0	 0.0	 0.0	 0.0	 0.0	 0.0	 0.0	 0.0	 0.0	 0.0	 0.0; % NG
	32404	 62.0	 5.0	 105.0	 -105.0	 1.04	 4.8	 1	 210	 0.0	 0.0	 0.0	 0.0	 0.0	 0.0	 0.0	 0.0	 0.0	 0.0	 0.0	 0.0; % NG
	32576	 7.0	 -1.0	 6.0	 -6.0	 1.0	 11.2	 1	 11	 0.0	 0.0	 0.0	 0.0	 0.0	 0.0	 0.0	 0.0	 0.0	 0.0	 0.0	 0.0; % NG
	32577	 6.0	 -2.0	 9.0	 -9.0	 1.0	 3.6	 1	 17	 0.0	 0.0	 0.0	 0.0	 0.0	 0.0	 0.0	 0.0	 0.0	 0.0	 0.0	 0.0; % NG
	32578	 1.25	 0.0	 3.0	 -3.0	 1.0	 1.25	 0	 6	 0.0	 0.0	 0.0	 0.0	 0.0	 0.0	 0.0	 0.0	 0.0	 0.0	 0.0	 0.0; % PEL
	32604	 7.5	 0.0	 6.0	 -6.0	 1.05	 8.5	 0	 11	 1.0	 0.0	 0.0	 0.0	 0.0	 0.0	 0.0	 0.0	 0.0	 0.0	 0.0	 0.0; % NG
	32604	 0.18	 0.0	 0.0	 0.0	 1.05	 0.2	 0	 0	 0.0	 0.0	 0.0	 0.0	 0.0	 0.0	 0.0	 0.0	 0.0	 0.0	 0.0	 0.0; % NG
	33071	 8.0	 1.0	 11.0	 -11.0	 1.0	 4.0	 1	 21	 0.0	 0.0	 0.0	 0.0	 0.0	 0.0	 0.0	 0.0	 0.0	 0.0	 0.0	 0.0; % NG
	33072	 4.0	 -1.0	 5.0	 -5.0	 1.04	 9.35	 1	 9	 0.0	 0.0	 0.0	 0.0	 0.0	 0.0	 0.0	 0.0	 0.0	 0.0	 0.0	 0.0; % NG
	35071	 9.0	 -4.0	 6.0	 -6.0	 1.0	 4.6	 1	 11	 0.0	 0.0	 0.0	 0.0	 0.0	 0.0	 0.0	 0.0	 0.0	 0.0	 0.0	 0.0; % NG
	35074	 117.0	 32.0	 213.0	 -213.0	 1.0	 121.1	 1	 426	 35.0	 0.0	 0.0	 0.0	 0.0	 0.0	 0.0	 0.0	 0.0	 0.0	 0.0	 0.0; % COW
	35871	 4.0	 -1.0	 3.0	 -3.0	 1.0	 2.55	 1	 5	 0.0	 0.0	 0.0	 0.0	 0.0	 0.0	 0.0	 0.0	 0.0	 0.0	 0.0	 0.0; % PEL
	35872	 4.0	 -1.0	 2.0	 -2.0	 1.0	 2.55	 1	 4	 0.0	 0.0	 0.0	 0.0	 0.0	 0.0	 0.0	 0.0	 0.0	 0.0	 0.0	 0.0; % NG
	35873	 4.0	 -2.0	 9.0	 -9.0	 1.0	 3.2	 1	 17	 0.0	 0.0	 0.0	 0.0	 0.0	 0.0	 0.0	 0.0	 0.0	 0.0	 0.0	 0.0; % NG
	35875	 5.0	 -11.0	 13.2	 -13.2	 1.0	 17.7	 1	 10	 0.0	 0.0	 0.0	 0.0	 0.0	 0.0	 0.0	 0.0	 0.0	 0.0	 0.0	 0.0; % NG
	35876	 4.0	 -7.0	 8.4	 -8.4	 1.0	 11.88	 1	 16	 0.0	 0.0	 0.0	 0.0	 0.0	 0.0	 0.0	 0.0	 0.0	 0.0	 0.0	 0.0; % PEL
	35877	 2.0	 -1.0	 3.0	 -3.0	 1.0	 5.4	 1	 6	 0.0	 0.0	 0.0	 0.0	 0.0	 0.0	 0.0	 0.0	 0.0	 0.0	 0.0	 0.0; % PEL
	36271	 60.0	 10.0	 68.0	 -68.0	 1.0	 36.0	 1	 135	 0.0	 0.0	 0.0	 0.0	 0.0	 0.0	 0.0	 0.0	 0.0	 0.0	 0.0	 0.0; % PEL
	36272	 36.0	 11.0	 22.0	 -75.0	 1.0	 20.0	 1	 44	 0.0	 0.0	 0.0	 0.0	 0.0	 0.0	 0.0	 0.0	 0.0	 0.0	 0.0	 0.0; % NG
	36471	 15.0	 1.0	 19.0	 -19.0	 1.0	 15.0	 1	 38	 0.0	 0.0	 0.0	 0.0	 0.0	 0.0	 0.0	 0.0	 0.0	 0.0	 0.0	 0.0; % NG
	36472	 8.0	 1.0	 16.0	 -16.0	 1.04	 4.6	 1	 32	 0.0	 0.0	 0.0	 0.0	 0.0	 0.0	 0.0	 0.0	 0.0	 0.0	 0.0	 0.0; % NG
	36473	 6.0	 1.0	 11.0	 -11.0	 1.0	 4.6	 1	 22	 0.0	 0.0	 0.0	 0.0	 0.0	 0.0	 0.0	 0.0	 0.0	 0.0	 0.0	 0.0; % PEL
	36474	 8.0	 3.0	 19.0	 -19.0	 1.04	 4.0	 1	 38	 0.0	 0.0	 0.0	 0.0	 0.0	 0.0	 0.0	 0.0	 0.0	 0.0	 0.0	 0.0; % COW
	36475	 11.0	 2.0	 25.0	 -25.0	 1.04	 4.6	 1	 50	 0.0	 0.0	 0.0	 0.0	 0.0	 0.0	 0.0	 0.0	 0.0	 0.0	 0.0	 0.0; % NG
	36476	 29.0	 4.0	 17.0	 -17.0	 1.04	 17.868	 1	 34	 0.0	 0.0	 0.0	 0.0	 0.0	 0.0	 0.0	 0.0	 0.0	 0.0	 0.0	 0.0; % PEL
	38071	 8.0	 4.0	 4.8	 -4.8	 1.0	 1.6	 1	 8	 0.0	 0.0	 0.0	 0.0	 0.0	 0.0	 0.0	 0.0	 0.0	 0.0	 0.0	 0.0; % PEL
	38244	 1.0	 0.0	 1.0	 -1.0	 1.0	 6.5	 0	 2	 0.0	 0.0	 0.0	 0.0	 0.0	 0.0	 0.0	 0.0	 0.0	 0.0	 0.0	 0.0; % PEL
	38271	 2.0	 -1.0	 1.2	 -1.2	 1.04	 11.69	 1	 2	 0.0	 0.0	 0.0	 0.0	 0.0	 0.0	 0.0	 0.0	 0.0	 0.0	 0.0	 0.0; % NG
	38272	 3.0	 -2.0	 4.0	 -4.0	 1.04	 5.01	 1	 7	 0.0	 0.0	 0.0	 0.0	 0.0	 0.0	 0.0	 0.0	 0.0	 0.0	 0.0	 0.0; % NG
	38273	 2.0	 -3.0	 3.6	 -3.6	 1.04	 8.35	 1	 3	 0.0	 0.0	 0.0	 0.0	 0.0	 0.0	 0.0	 0.0	 0.0	 0.0	 0.0	 0.0; % NG
	38870	 20.0	 7.0	 12.0	 -12.0	 1.04	 25.3	 1	 23	 0.0	 0.0	 0.0	 0.0	 0.0	 0.0	 0.0	 0.0	 0.0	 0.0	 0.0	 0.0; % NG
	38871	 13.0	 5.0	 18.0	 -18.0	 1.0	 10.0	 1	 35	 0.0	 0.0	 0.0	 0.0	 0.0	 0.0	 0.0	 0.0	 0.0	 0.0	 0.0	 0.0; % NG
	39471	 302.0	 -54.306	 187.0	 -187.0	 1.0	 359.0	 0	 373	 49.5	 0.0	 0.0	 0.0	 0.0	 0.0	 0.0	 0.0	 0.0	 0.0	 0.0	 0.0; % COW
	39472	 110.0	 202.0	 242.4	 -242.4	 1.0	 359.0	 1	 142	 49.5	 0.0	 0.0	 0.0	 0.0	 0.0	 0.0	 0.0	 0.0	 0.0	 0.0	 0.0; % NG
	39473	 302.0	 0.0	 196.0	 -196.0	 1.0	 359.0	 0	 392	 49.5	 0.0	 0.0	 0.0	 0.0	 0.0	 0.0	 0.0	 0.0	 0.0	 0.0	 0.0; % NG
	39675	 90.0	 0.0	 222.0	 -222.0	 1.0	 100.9	 0	 444	 30.0	 0.0	 0.0	 0.0	 0.0	 0.0	 0.0	 0.0	 0.0	 0.0	 0.0	 0.0; % NG
	40471	 3.0	 -1.0	 7.0	 -7.0	 1.02	 6.9	 1	 14	 0.0	 0.0	 0.0	 0.0	 0.0	 0.0	 0.0	 0.0	 0.0	 0.0	 0.0	 0.0; % NG
	40771	 6.0	 -31.0	 37.2	 -37.2	 1.0	 52.9	 1	 12	 0.0	 0.0	 0.0	 0.0	 0.0	 0.0	 0.0	 0.0	 0.0	 0.0	 0.0	 0.0; % PEL
	40772	 6.0	 1.0	 7.0	 -7.0	 1.0	 19.5	 1	 13	 0.0	 0.0	 0.0	 0.0	 0.0	 0.0	 0.0	 0.0	 0.0	 0.0	 0.0	 0.0; % NG
	40773	 6.0	 3.0	 9.0	 -9.0	 1.0	 16.1	 1	 17	 0.0	 0.0	 0.0	 0.0	 0.0	 0.0	 0.0	 0.0	 0.0	 0.0	 0.0	 0.0; % NG
	42404	 15.0	 0.0	 31.0	 -31.0	 1.0	 20.0	 0	 61	 3.0	 0.0	 0.0	 0.0	 0.0	 0.0	 0.0	 0.0	 0.0	 0.0	 0.0	 0.0; % COW
	42404	 15.0	 0.0	 26.0	 -26.0	 1.0	 20.0	 0	 52	 3.0	 0.0	 0.0	 0.0	 0.0	 0.0	 0.0	 0.0	 0.0	 0.0	 0.0	 0.0; % NG
	42404	 15.0	 0.0	 31.0	 -31.0	 1.0	 20.0	 0	 61	 3.0	 0.0	 0.0	 0.0	 0.0	 0.0	 0.0	 0.0	 0.0	 0.0	 0.0	 0.0; % NG
	42474	 118.0	 0.0	 115.0	 -115.0	 1.0	 132.1	 0	 229	 20.0	 0.0	 0.0	 0.0	 0.0	 0.0	 0.0	 0.0	 0.0	 0.0	 0.0	 0.0; % NG
	42475	 109.5	 0.0	 141.0	 -141.0	 1.0	 132.1	 0	 282	 10.0	 0.0	 0.0	 0.0	 0.0	 0.0	 0.0	 0.0	 0.0	 0.0	 0.0	 0.0; % NG
	42672	 5.0	 1.0	 7.0	 -7.0	 1.0	 2.55	 1	 13	 0.0	 0.0	 0.0	 0.0	 0.0	 0.0	 0.0	 0.0	 0.0	 0.0	 0.0	 0.0; % PEL
	42673	 6.0	 3.0	 5.0	 -5.0	 1.0	 4.6	 1	 9	 0.0	 0.0	 0.0	 0.0	 0.0	 0.0	 0.0	 0.0	 0.0	 0.0	 0.0	 0.0; % NG
	42674	 5.0	 1.0	 8.0	 -8.0	 1.0	 2.55	 1	 15	 0.0	 0.0	 0.0	 0.0	 0.0	 0.0	 0.0	 0.0	 0.0	 0.0	 0.0	 0.0; % PEL
	43671	 9.0	 4.0	 5.0	 -5.0	 1.0	 6.9	 1	 10	 0.0	 0.0	 0.0	 0.0	 0.0	 0.0	 0.0	 0.0	 0.0	 0.0	 0.0	 0.0; % NG
	43672	 5.0	 1.0	 4.0	 -4.0	 1.0	 2.3	 1	 7	 0.0	 0.0	 0.0	 0.0	 0.0	 0.0	 0.0	 0.0	 0.0	 0.0	 0.0	 0.0; % PEL
	43774	 5.0	 -7.0	 10.0	 -10.0	 1.0	 36.8	 1	 13	 0.0	 0.0	 0.0	 0.0	 0.0	 0.0	 0.0	 0.0	 0.0	 0.0	 0.0	 0.0; % NG
	44471	 15.0	 0.0	 34.0	 -34.0	 1.0	 18.8	 0	 67	 2.5	 0.0	 0.0	 0.0	 0.0	 0.0	 0.0	 0.0	 0.0	 0.0	 0.0	 0.0; % NG
	44471	 15.0	 0.0	 28.0	 -28.0	 1.0	 18.8	 0	 55	 2.5	 0.0	 0.0	 0.0	 0.0	 0.0	 0.0	 0.0	 0.0	 0.0	 0.0	 0.0; % NG
	44471	 4.0	 0.0	 10.0	 -10.0	 1.0	 5.0	 0	 19	 0.5	 0.0	 0.0	 0.0	 0.0	 0.0	 0.0	 0.0	 0.0	 0.0	 0.0	 0.0; % NG
	46801	 6.5	 0.0	 7.0	 -7.0	 1.04	 6.75	 0	 14	 1.0	 0.0	 0.0	 0.0	 0.0	 0.0	 0.0	 0.0	 0.0	 0.0	 0.0	 0.0; % NG
	46854	 3.2	 0.0	 4.0	 -4.0	 1.04	 3.2	 0	 7	 1.6	 0.0	 0.0	 0.0	 0.0	 0.0	 0.0	 0.0	 0.0	 0.0	 0.0	 0.0; % NG
	46870	 4.0	 1.0	 3.0	 -3.0	 1.0	 4.6	 1	 5	 0.0	 0.0	 0.0	 0.0	 0.0	 0.0	 0.0	 0.0	 0.0	 0.0	 0.0	 0.0; % PEL
	46873	 4.0	 2.0	 10.0	 -10.0	 1.04	 15.0	 1	 19	 0.0	 0.0	 0.0	 0.0	 0.0	 0.0	 0.0	 0.0	 0.0	 0.0	 0.0	 0.0; % NG
	46874	 6.0	 3.0	 7.0	 -7.0	 1.0	 17.868	 1	 14	 0.0	 0.0	 0.0	 0.0	 0.0	 0.0	 0.0	 0.0	 0.0	 0.0	 0.0	 0.0; % COW
	46875	 2.4	 0.0	 2.0	 -2.0	 1.0	 3.0	 0	 4	 0.0	 0.0	 0.0	 0.0	 0.0	 0.0	 0.0	 0.0	 0.0	 0.0	 0.0	 0.0; % PEL
	47871	 26.0	 15.0	 53.0	 -53.0	 1.0	 53.44	 1	 106	 0.0	 0.0	 0.0	 0.0	 0.0	 0.0	 0.0	 0.0	 0.0	 0.0	 0.0	 0.0; % NG
	47872	 17.0	 13.0	 18.0	 -18.0	 1.0	 28.39	 1	 36	 0.0	 0.0	 0.0	 0.0	 0.0	 0.0	 0.0	 0.0	 0.0	 0.0	 0.0	 0.0; % PEL
	47873	 11.0	 1.0	 10.0	 -10.0	 1.0	 6.68	 1	 19	 0.0	 0.0	 0.0	 0.0	 0.0	 0.0	 0.0	 0.0	 0.0	 0.0	 0.0	 0.0; % NG
	49474	 80.0	 103.0	 123.6	 -123.6	 1.0	 181.7	 1	 161	 27.5	 0.0	 0.0	 0.0	 0.0	 0.0	 0.0	 0.0	 0.0	 0.0	 0.0	 0.0; % NG
	49604	 0.7	 0.0	 1.0	 -1.0	 1.0	 1.0	 0	 1	 0.0	 0.0	 0.0	 0.0	 0.0	 0.0	 0.0	 0.0	 0.0	 0.0	 0.0	 0.0; % PEL
	49672	 3.0	 1.0	 5.0	 -5.0	 1.04	 3.34	 1	 9	 0.0	 0.0	 0.0	 0.0	 0.0	 0.0	 0.0	 0.0	 0.0	 0.0	 0.0	 0.0; % NG
	49971	 7.0	 -21.0	 25.2	 -25.2	 1.0	 32.0	 1	 9	 0.0	 0.0	 0.0	 0.0	 0.0	 0.0	 0.0	 0.0	 0.0	 0.0	 0.0	 0.0; % NG
	49973	 6.0	 3.0	 14.0	 -14.0	 1.0	 6.9	 1	 28	 0.0	 0.0	 0.0	 0.0	 0.0	 0.0	 0.0	 0.0	 0.0	 0.0	 0.0	 0.0; % NG
	49975	 2.0	 -1.0	 1.2	 -1.79	 1.0	 4.6	 1	 2	 0.0	 0.0	 0.0	 0.0	 0.0	 0.0	 0.0	 0.0	 0.0	 0.0	 0.0	 0.0; % NG
	49976	 3.0	 -2.0	 3.0	 -3.0	 1.0	 9.2	 1	 5	 0.0	 0.0	 0.0	 0.0	 0.0	 0.0	 0.0	 0.0	 0.0	 0.0	 0.0	 0.0; % NG
	49980	 4.0	 1.0	 4.0	 -4.0	 1.0	 2.3	 1	 7	 0.0	 0.0	 0.0	 0.0	 0.0	 0.0	 0.0	 0.0	 0.0	 0.0	 0.0	 0.0; % PEL
	50071	 2.0	 -1.0	 2.0	 -2.0	 1.04	 7.65	 1	 4	 0.0	 0.0	 0.0	 0.0	 0.0	 0.0	 0.0	 0.0	 0.0	 0.0	 0.0	 0.0; % NG
...
];

%% generator cost data
%	2	startup	shutdown	n	c(n-1)	...	c0
mpc.gencost = [
	2	 0.0	 0.0	 3	   0.000000	   6.635584	   0.000000; % PEL
	2	 0.0	 0.0	 3	   0.000000	   0.890192	   0.000000; % NG
	2	 0.0	 0.0	 3	   0.000000	   1.206004	   0.000000; % COW
	2	 0.0	 0.0	 3	   0.000000	   0.855915	   0.000000; % NG
	2	 0.0	 0.0	 3	   0.000000	   7.236799	   0.000000; % PEL
	2	 0.0	 0.0	 3	   0.000000	   7.089613	   0.000000; % PEL
	2	 0.0	 0.0	 3	   0.000000	   0.812004	   0.000000; % COW
	2	 0.0	 0.0	 3	   0.000000	   1.086438	   0.000000; % NG
	2	 0.0	 0.0	 3	   0.000000	   1.469396	   0.000000; % NG
	2	 0.0	 0.0	 3	   0.000000	   0.985630	   0.000000; % NG
	2	 0.0	 0.0	 3	   0.000000	   1.296382	   0.000000; % NG
	2	 0.0	 0.0	 3	   0.000000	   0.988425	   0.000000; % NG
	2	 0.0	 0.0	 3	   0.000000	   0.884748	   0.000000; % NG
	2	 0.0	 0.0	 3	   0.000000	   6.547775	   0.000000; % PEL
	2	 0.0	 0.0	 3	   0.000000	   0.976288	   0.000000; % NG
	2	 0.0	 0.0	 3	   0.000000	   1.096053	   0.000000; % NG
	2	 0.0	 0.0	 3	   0.000000	   0.959716	   0.000000; % COW
	2	 0.0	 0.0	 3	   0.000000	   0.734934	   0.000000; % COW
	2	 0.0	 0.0	 3	   0.000000	   0.607587	   0.000000; % COW
	2	 0.0	 0.0	 3	   0.000000	   6.493400	   0.000000; % PEL
	2	 0.0	 0.0	 3	   0.000000	   6.632970	   0.000000; % PEL
	2	 0.0	 0.0	 3	   0.000000	   6.500010	   0.000000; % PEL
	2	 0.0	 0.0	 3	   0.000000	   6.452199	   0.000000; % PEL
	2	 0.0	 0.0	 3	   0.000000	   1.201582	   0.000000; % NG
	2	 0.0	 0.0	 3	   0.000000	   0.992327	   0.000000; % NG
	2	 0.0	 0.0	 3	   0.000000	   1.115049	   0.000000; % NG
	2	 0.0	 0.0	 3	   0.000000	   7.430930	   0.000000; % PEL
	2	 0.0	 0.0	 3	   0.000000	   7.109018	   0.000000; % PEL
	2	 0.0	 0.0	 3	   0.000000	   1.467826	   0.000000; % NG
	2	 0.0	 0.0	 3	   0.000000	   0.545289	   0.000000; % COW
	2	 0.0	 0.0	 3	   0.000000	   1.220249	   0.000000; % NG
	2	 0.0	 0.0	 3	   0.000000	   0.367378	   0.000000; % COW
	2	 0.0	 0.0	 3	   0.000000	   6.866700	   0.000000; % PEL
	2	 0.0	 0.0	 3	   0.000000	   6.833336	   0.000000; % PEL
	2	 0.0	 0.0	 3	   0.000000	   7.593127	   0.000000; % PEL
	2	 0.0	 0.0	 3	   0.000000	   0.878458	   0.000000; % NG
	2	 0.0	 0.0	 3	   0.000000	   1.446998	   0.000000; % NG
	2	 0.0	 0.0	 3	   0.000000	   6.608683	   0.000000; % PEL
	2	 0.0	 0.0	 3	   0.000000	   7.145839	   0.000000; % PEL
	2	 0.0	 0.0	 3	   0.000000	   6.728849	   0.000000; % PEL
	2	 0.0	 0.0	 3	   0.000000	   6.948494	   0.000000; % PEL
	2	 0.0	 0.0	 3	   0.000000	   6.967808	   0.000000; % PEL
	2	 0.0	 0.0	 3	   0.000000	   0.886595	   0.000000; % NG
	2	 0.0	 0.0	 3	   0.000000	   6.824893	   0.000000; % PEL
	2	 0.0	 0.0	 3	   0.000000	   0.802000	   0.000000; % COW
	2	 0.0	 0.0	 3	   0.000000	   1.072686	   0.000000; % NG
	2	 0.0	 0.0	 3	   0.000000	   1.046475	   0.000000; % NG
	2	 0.0	 0.0	 3	   0.000000	   1.028701	   0.000000; % NG
	2	 0.0	 0.0	 3	   0.000000	   1.393857	   0.000000; % NG
	2	 0.0	 0.0	 3	   0.000000	   1.119732	   0.000000; % NG
	2	 0.0	 0.0	 3	   0.000000	   1.066799	   0.000000; % NG
	2	 0.0	 0.0	 3	   0.000000	   0.888611	   0.000000; % COW
	2	 0.0	 0.0	 3	   0.000000	   6.704686	   0.000000; % PEL
	2	 0.0	 0.0	 3	   0.000000	   6.632436	   0.000000; % PEL
	2	 0.0	 0.0	 3	   0.000000	   1.266358	   0.000000; % COW
	2	 0.0	 0.0	 3	   0.000000	   1.180129	   0.000000; % NG
	2	 0.0	 0.0	 3	   0.000000	   6.569892	   0.000000; % PEL
	2	 0.0	 0.0	 3	   0.000000	   0.827183	   0.000000; % COW
	2	 0.0	 0.0	 3	   0.000000	   6.531069	   0.000000; % PEL
	2	 0.0	 0.0	 3	   0.000000	   1.014536	   0.000000; % NG
	2	 0.0	 0.0	 3	   0.000000	   1.057254	   0.000000; % NG
	2	 0.0	 0.0	 3	   0.000000	   1.222517	   0.000000; % NG
	2	 0.0	 0.0	 3	   0.000000	   1.108452	   0.000000; % NG
	2	 0.0	 0.0	 3	   0.000000	   1.169292	   0.000000; % NG
	2	 0.0	 0.0	 3	   0.000000	   6.953312	   0.000000; % PEL
	2	 0.0	 0.0	 3	   0.000000	   1.001435	   0.000000; % NG
	2	 0.0	 0.0	 3	   0.000000	   6.754443	   0.000000; % PEL
	2	 0.0	 0.0	 3	   0.000000	   6.417951	   0.000000; % PEL
	2	 0.0	 0.0	 3	   0.000000	   0.000000	   0.000000; % SYNC
	2	 0.0	 0.0	 3	   0.000000	   1.008392	   0.000000; % NG
	2	 0.0	 0.0	 3	   0.000000	   1.170921	   0.000000; % NG
	2	 0.0	 0.0	 3	   0.000000	   0.735077	   0.000000; % COW
	2	 0.0	 0.0	 3	   0.000000	   0.790224	   0.000000; % NG
	2	 0.0	 0.0	 3	   0.000000	   1.000814	   0.000000; % NG
	2	 0.0	 0.0	 3	   0.000000	   1.140848	   0.000000; % NG
	2	 0.0	 0.0	 3	   0.000000	   0.941576	   0.000000; % NG
	2	 0.0	 0.0	 3	   0.000000	   0.925032	   0.000000; % COW
	2	 0.0	 0.0	 3	   0.000000	   7.136789	   0.000000; % PEL
	2	 0.0	 0.0	 3	   0.000000	   1.021298	   0.000000; % NG
	2	 0.0	 0.0	 3	   0.000000	   6.567827	   0.000000; % PEL
	2	 0.0	 0.0	 3	   0.000000	   6.675258	   0.000000; % PEL
	2	 0.0	 0.0	 3	   0.000000	   0.569866	   0.000000; % COW
	2	 0.0	 0.0	 3	   0.000000	   1.032453	   0.000000; % NG
	2	 0.0	 0.0	 3	   0.000000	   0.493376	   0.000000; % COW
	2	 0.0	 0.0	 3	   0.000000	   6.565534	   0.000000; % PEL
	2	 0.0	 0.0	 3	   0.000000	   6.588365	   0.000000; % PEL
	2	 0.0	 0.0	 3	   0.000000	   1.284504	   0.000000; % NG
	2	 0.0	 0.0	 3	   0.000000	   1.403362	   0.000000; % NG
	2	 0.0	 0.0	 3	   0.000000	   1.351186	   0.000000; % NG
	2	 0.0	 0.0	 3	   0.000000	   0.740140	   0.000000; % NG
	2	 0.0	 0.0	 3	   0.000000	   0.891732	   0.000000; % NG
	2	 0.0	 0.0	 3	   0.000000	   1.205384	   0.000000; % NG
	2	 0.0	 0.0	 3	   0.000000	   7.411429	   0.000000; % PEL
	2	 0.0	 0.0	 3	   0.000000	   6.401661	   0.000000; % PEL
	2	 0.0	 0.0	 3	   0.000000	   7.662582	   0.000000; % PEL
	2	 0.0	 0.0	 3	   0.000000	   6.471707	   0.000000; % PEL
	2	 0.0	 0.0	 3	   0.000000	   1.167095	   0.000000; % NG
	2	 0.0	 0.0	 3	   0.000000	   6.985557	   0.000000; % PEL
	2	 0.0	 0.0	 3	   0.000000	   0.900514	   0.000000; % NG
	2	 0.0	 0.0	 3	   0.000000	   6.880437	   0.000000; % PEL
	2	 0.0	 0.0	 3	   0.000000	   1.202901	   0.000000; % NG
	2	 0.0	 0.0	 3	   0.000000	   1.259579	   0.000000; % NG
	2	 0.0	 0.0	 3	   0.000000	   1.000642	   0.000000; % NG
	2	 0.0	 0.0	 3	   0.000000	   0.864332	   0.000000; % COW
	2	 0.0	 0.0	 3	   0.000000	   0.000000	   0.000000; % SYNC
	2	 0.0	 0.0	 3	   0.000000	   0.710297	   0.000000; % COW
	2	 0.0	 0.0	 3	   0.000000	   0.694598	   0.000000; % NG
	2	 0.0	 0.0	 3	   0.000000	   0.940718	   0.000000; % NG
	2	 0.0	 0.0	 3	   0.000000	   0.812355	   0.000000; % NG
	2	 0.0	 0.0	 3	   0.000000	   0.907062	   0.000000; % NG
	2	 0.0	 0.0	 3	   0.000000	   1.091193	   0.000000; % NG
	2	 0.0	 0.0	 3	   0.000000	   1.150665	   0.000000; % NG
	2	 0.0	 0.0	 3	   0.000000	   6.651163	   0.000000; % PEL
	2	 0.0	 0.0	 3	   0.000000	   6.671685	   0.000000; % PEL
	2	 0.0	 0.0	 3	   0.000000	   7.243123	   0.000000; % PEL
	2	 0.0	 0.0	 3	   0.000000	   0.870653	   0.000000; % COW
	2	 0.0	 0.0	 3	   0.000000	   6.308510	   0.000000; % PEL
	2	 0.0	 0.0	 3	   0.000000	   0.946532	   0.000000; % NG
	2	 0.0	 0.0	 3	   0.000000	   1.005689	   0.000000; % NG
	2	 0.0	 0.0	 3	   0.000000	   1.046076	   0.000000; % NG
	2	 0.0	 0.0	 3	   0.000000	   7.593554	   0.000000; % PEL
	2	 0.0	 0.0	 3	   0.000000	   0.973148	   0.000000; % NG
	2	 0.0	 0.0	 3	   0.000000	   0.915498	   0.000000; % NG
	2	 0.0	 0.0	 3	   0.000000	   1.048275	   0.000000; % COW
	2	 0.0	 0.0	 3	   0.000000	   6.807178	   0.000000; % PEL
	2	 0.0	 0.0	 3	   0.000000	   1.198078	   0.000000; % NG
	2	 0.0	 0.0	 3	   0.000000	   7.570764	   0.000000; % PEL
	2	 0.0	 0.0	 3	   0.000000	   0.665748	   0.000000; % COW
	2	 0.0	 0.0	 3	   0.000000	   1.345785	   0.000000; % NG
	2	 0.0	 0.0	 3	   0.000000	   0.981030	   0.000000; % NG
	2	 0.0	 0.0	 3	   0.000000	   1.095059	   0.000000; % NG
	2	 0.0	 0.0	 3	   0.000000	   0.893247	   0.000000; % NG
	2	 0.0	 0.0	 3	   0.000000	   7.002837	   0.000000; % PEL
	2	 0.0	 0.0	 3	   0.000000	   0.963394	   0.000000; % NG
	2	 0.0	 0.0	 3	   0.000000	   1.136804	   0.000000; % NG
	2	 0.0	 0.0	 3	   0.000000	   1.126040	   0.000000; % NG
	2	 0.0	 0.0	 3	   0.000000	   0.616419	   0.000000; % NG
	2	 0.0	 0.0	 3	   0.000000	   0.776485	   0.000000; % NG
	2	 0.0	 0.0	 3	   0.000000	   0.459276	   0.000000; % COW
	2	 0.0	 0.0	 3	   0.000000	   7.523899	   0.000000; % PEL
	2	 0.0	 0.0	 3	   0.000000	   1.064063	   0.000000; % NG
	2	 0.0	 0.0	 3	   0.000000	   1.107794	   0.000000; % NG
	2	 0.0	 0.0	 3	   0.000000	   0.710947	   0.000000; % NG
	2	 0.0	 0.0	 3	   0.000000	   6.711785	   0.000000; % PEL
	2	 0.0	 0.0	 3	   0.000000	   6.729461	   0.000000; % PEL
	2	 0.0	 0.0	 3	   0.000000	   6.801204	   0.000000; % PEL
	2	 0.0	 0.0	 3	   0.000000	   1.454925	   0.000000; % NG
	2	 0.0	 0.0	 3	   0.000000	   0.836245	   0.000000; % NG
	2	 0.0	 0.0	 3	   0.000000	   0.914294	   0.000000; % NG
	2	 0.0	 0.0	 3	   0.000000	   6.683402	   0.000000; % PEL
	2	 0.0	 0.0	 3	   0.000000	   0.633039	   0.000000; % COW
	2	 0.0	 0.0	 3	   0.000000	   1.068969	   0.000000; % NG
	2	 0.0	 0.0	 3	   0.000000	   6.347800	   0.000000; % PEL
	2	 0.0	 0.0	 3	   0.000000	   6.517689	   0.000000; % PEL
	2	 0.0	 0.0	 3	   0.000000	   7.290635	   0.000000; % PEL
	2	 0.0	 0.0	 3	   0.000000	   1.196039	   0.000000; % NG
	2	 0.0	 0.0	 3	   0.000000	   1.289518	   0.000000; % NG
	2	 0.0	 0.0	 3	   0.000000	   1.183216	   0.000000; % NG
	2	 0.0	 0.0	 3	   0.000000	   1.283579	   0.000000; % NG
	2	 0.0	 0.0	 3	   0.000000	   1.189649	   0.000000; % NG
	2	 0.0	 0.0	 3	   0.000000	   1.362654	   0.000000; % COW
	2	 0.0	 0.0	 3	   0.000000	   1.153824	   0.000000; % NG
	2	 0.0	 0.0	 3	   0.000000	   1.140987	   0.000000; % NG
	2	 0.0	 0.0	 3	   0.000000	   1.497612	   0.000000; % NG
	2	 0.0	 0.0	 3	   0.000000	   1.053849	   0.000000; % NG
	2	 0.0	 0.0	 3	   0.000000	   6.949259	   0.000000; % PEL
	2	 0.0	 0.0	 3	   0.000000	   1.305708	   0.000000; % NG
	2	 0.0	 0.0	 3	   0.000000	   1.487166	   0.000000; % NG
	2	 0.0	 0.0	 3	   0.000000	   0.692835	   0.000000; % COW
	2	 0.0	 0.0	 3	   0.000000	   1.114696	   0.000000; % NG
	2	 0.0	 0.0	 3	   0.000000	   1.195555	   0.000000; % NG
	2	 0.0	 0.0	 3	   0.000000	   1.114339	   0.000000; % NG
	2	 0.0	 0.0	 3	   0.000000	   1.046909	   0.000000; % NG
	2	 0.0	 0.0	 3	   0.000000	   7.146444	   0.000000; % PEL
	2	 0.0	 0.0	 3	   0.000000	   0.992482	   0.000000; % NG
	2	 0.0	 0.0	 3	   0.000000	   6.984241	   0.000000; % PEL
	2	 0.0	 0.0	 3	   0.000000	   1.092410	   0.000000; % NG
	2	 0.0	 0.0	 3	   0.000000	   7.345486	   0.000000; % PEL
	2	 0.0	 0.0	 3	   0.000000	   0.950109	   0.000000; % NG
	2	 0.0	 0.0	 3	   0.000000	   1.338016	   0.000000; % NG
	2	 0.0	 0.0	 3	   0.000000	   0.889797	   0.000000; % NG
	2	 0.0	 0.0	 3	   0.000000	   1.593837	   0.000000; % NG
	2	 0.0	 0.0	 3	   0.000000	   0.973086	   0.000000; % NG
	2	 0.0	 0.0	 3	   0.000000	   1.041131	   0.000000; % NG
	2	 0.0	 0.0	 3	   0.000000	   7.503780	   0.000000; % PEL
	2	 0.0	 0.0	 3	   0.000000	   1.416362	   0.000000; % NG
	2	 0.0	 0.0	 3	   0.000000	   1.103469	   0.000000; % COW
	2	 0.0	 0.0	 3	   0.000000	   6.941372	   0.000000; % PEL
	2	 0.0	 0.0	 3	   0.000000	   1.099044	   0.000000; % NG
	2	 0.0	 0.0	 3	   0.000000	   7.512023	   0.000000; % PEL
	2	 0.0	 0.0	 3	   0.000000	   1.211210	   0.000000; % NG
	2	 0.0	 0.0	 3	   0.000000	   1.005008	   0.000000; % NG
	2	 0.0	 0.0	 3	   0.000000	   6.910567	   0.000000; % PEL
	2	 0.0	 0.0	 3	   0.000000	   0.947708	   0.000000; % NG
	2	 0.0	 0.0	 3	   0.000000	   1.188287	   0.000000; % NG
	2	 0.0	 0.0	 3	   0.000000	   1.452343	   0.000000; % NG
	2	 0.0	 0.0	 3	   0.000000	   1.416932	   0.000000; % NG
	2	 0.0	 0.0	 3	   0.000000	   1.222932	   0.000000; % NG
	2	 0.0	 0.0	 3	   0.000000	   7.137525	   0.000000; % PEL
	2	 0.0	 0.0	 3	   0.000000	   1.034285	   0.000000; % NG
...
];

%% branch data
%	fbus	tbus	r	x	b	rateA	rateB	rateC	ratio	angle	status	angmin	angmax
mpc.branch = [
	11	 42404	 0.0036	 0.00391	 0.00207	 100.0	 100.0	 110.0	 0.0	 0.0	 1	 -30.0	 30.0;
	12	 25404	 0.00534	 0.00795	 0.00407	 3604.0	 3604.0	 3604.0	 0.0	 0.0	 1	 -30.0	 30.0;
	12	 25404	 0.00594	 0.00866	 0.00435	 3287.0	 3287.0	 3287.0	 0.0	 0.0	 1	 -30.0	 30.0;
	12	 46504	 0.02132	 0.02114	 0.00329	 1149.0	 1149.0	 1149.0	 0.0	 0.0	 1	 -30.0	 30.0;
	12	 46504	 0.01937	 0.01703	 0.00256	 1338.0	 1338.0	 1338.0	 0.0	 0.0	 1	 -30.0	 30.0;
	1021	 2121	 0.0286	 0.067	 0.0059	 105.0	 105.0	 115.5	 0.0	 0.0	 1	 -30.0	 30.0;
	1021	 2361	 0.0513	 0.1172	 0.0106	 105.0	 105.0	 115.5	 0.0	 0.0	 1	 -30.0	 30.0;
	1021	 3541	 0.0071	 0.037	 0.0116	 99.0	 99.0	 108.9	 0.0	 0.0	 1	 -30.0	 30.0;
	1021	 10210	 0.0	 0.0001	 0.0	 999.0	 999.0	 1098.9	 0.0	 0.0	 1	 -30.0	 30.0;
	1021	 10261	 0.0	 0.0001	 0.0	 105.0	 105.0	 115.5	 0.0	 0.0	 1	 -30.0	 30.0;
	1041	 5481	 0.0049	 0.0107	 0.001	 105.0	 105.0	 115.5	 0.0	 0.0	 1	 -30.0	 30.0;
	1042	 1052	 0.0	 0.0001	 0.0	 9999.0	 9999.0	 10998.9	 0.0	 0.0	 0	 -30.0	 30.0;
	1042	 1062	 0.0	 0.0001	 0.0	 593.0	 593.0	 652.3	 0.0	 0.0	 1	 -30.0	 30.0;
	1042	 1072	 0.0001	 0.0006	 0.0384	 593.0	 593.0	 652.3	 0.0	 0.0	 1	 -30.0	 30.0;
	1042	 3202	 0.003	 0.0222	 0.0335	 434.0	 434.0	 477.4	 0.0	 0.0	 1	 -30.0	 30.0;
	1042	 4722	 0.0012	 0.0078	 0.2591	 434.0	 434.0	 477.4	 0.0	 0.0	 1	 -30.0	 30.0;
	1042	 35771	 0.0001	 0.0004	 0.0265	 593.0	 593.0	 652.3	 0.0	 0.0	 1	 -30.0	 30.0;
	1052	 1062	 0.0	 0.0001	 0.0	 999.0	 999.0	 1098.9	 0.0	 0.0	 0	 -30.0	 30.0;
	1052	 2852	 0.0002	 0.0015	 0.1035	 593.0	 593.0	 652.3	 0.0	 0.0	 1	 -30.0	 30.0;
	1052	 3202	 0.003	 0.0222	 0.0335	 434.0	 434.0	 477.4	 0.0	 0.0	 1	 -30.0	 30.0;
	1061	 10619	 0.0004	 0.0008	 0.0001	 105.0	 105.0	 115.5	 0.0	 0.0	 1	 -30.0	 30.0;
	1062	 1072	 0.0	 0.0001	 0.0	 999.0	 999.0	 1098.9	 0.0	 0.0	 0	 -30.0	 30.0;
	1071	 2231	 0.0125	 0.0276	 0.0026	 105.0	 105.0	 115.5	 0.0	 0.0	 1	 -30.0	 30.0;
	1071	 2361	 0.0594	 0.1314	 0.0123	 105.0	 105.0	 115.5	 0.0	 0.0	 1	 -30.0	 30.0;
	1071	 4941	 0.0718	 0.1589	 0.0148	 105.0	 105.0	 115.5	 0.0	 0.0	 1	 -30.0	 30.0;
	1081	 32810	 0.0039	 0.0123	 0.0035	 68.0	 112.0	 123.2	 0.0	 0.0	 1	 -30.0	 30.0;
	1101	 2161	 0.0031	 0.0069	 0.0006	 45.0	 105.0	 115.5	 0.0	 0.0	 1	 -30.0	 30.0;
	1121	 1301	 0.0102	 0.0787	 0.0071	 136.0	 136.0	 149.6	 0.0	 0.0	 1	 -30.0	 30.0;
	1121	 1541	 0.0207	 0.0952	 0.0102	 137.0	 178.0	 195.8	 0.0	 0.0	 1	 -30.0	 30.0;
	1121	 4901	 0.0035	 0.0077	 0.0008	 34.0	 34.0	 37.4	 0.0	 0.0	 1	 -30.0	 30.0;
	1122	 1742	 0.0062	 0.0462	 0.0697	 434.0	 434.0	 477.4	 0.0	 0.0	 1	 -30.0	 30.0;
	1122	 3642	 0.0046	 0.0338	 0.051	 434.0	 434.0	 477.4	 0.0	 0.0	 1	 -30.0	 30.0;
	1141	 3501	 0.054	 0.123	 0.0116	 105.0	 105.0	 115.5	 0.0	 0.0	 1	 -30.0	 30.0;
	1141	 4941	 0.0135	 0.0696	 0.0113	 137.0	 178.0	 195.8	 0.0	 0.0	 1	 -30.0	 30.0;
	1141	 11461	 0.0	 0.0001	 0.0	 105.0	 105.0	 115.5	 0.0	 0.0	 1	 -30.0	 30.0;
	1161	 1781	 0.001	 0.002	 0.0011	 96.0	 96.0	 105.6	 0.0	 0.0	 1	 -30.0	 30.0;
	1161	 3901	 0.0173	 0.0894	 0.0097	 178.0	 178.0	 195.8	 0.0	 0.0	 1	 -30.0	 30.0;
	1161	 5051	 0.0006	 0.0012	 0.0061	 120.0	 120.0	 132.0	 0.0	 0.0	 1	 -30.0	 30.0;
	1161	 5071	 0.0006	 0.0012	 0.0061	 120.0	 120.0	 132.0	 0.0	 0.0	 1	 -30.0	 30.0;
	1161	 17810	 0.001	 0.0021	 0.0012	 96.0	 96.0	 105.6	 0.0	 0.0	 1	 -30.0	 30.0;
	1161	 51410	 0.0214	 0.1105	 0.012	 178.0	 178.0	 195.8	 0.0	 0.0	 1	 -30.0	 30.0;
	1181	 1861	 0.0644	 0.1424	 0.0133	 105.0	 105.0	 115.5	 0.0	 0.0	 1	 -30.0	 30.0;
	1181	 2821	 0.0193	 0.0994	 0.0108	 178.0	 178.0	 195.8	 0.0	 0.0	 1	 -30.0	 30.0;
	1181	 4221	 0.0381	 0.1969	 0.0214	 120.0	 120.0	 132.0	 0.0	 0.0	 1	 -30.0	 30.0;
	1181	 4961	 0.0292	 0.0645	 0.006	 80.0	 80.0	 88.0	 0.0	 0.0	 1	 -30.0	 30.0;
	1181	 4961	 0.0148	 0.0763	 0.0097	 178.0	 178.0	 195.8	 0.0	 0.0	 1	 -30.0	 30.0;
	1201	 2561	 0.0047	 0.0101	 0.0548	 120.0	 120.0	 132.0	 0.0	 0.0	 1	 -30.0	 30.0;
	1201	 3781	 0.0026	 0.0055	 0.0298	 120.0	 120.0	 132.0	 0.0	 0.0	 1	 -30.0	 30.0;
	1221	 1901	 0.0389	 0.086	 0.008	 105.0	 105.0	 115.5	 0.0	 0.0	 1	 -30.0	 30.0;
	1221	 4481	 0.0414	 0.0915	 0.0086	 105.0	 105.0	 115.5	 0.0	 0.0	 1	 -30.0	 30.0;
	1231	 1841	 0.0111	 0.03	 0.1366	 68.0	 116.0	 127.6	 0.0	 0.0	 1	 -30.0	 30.0;
	1251	 2361	 0.0373	 0.0826	 0.0077	 105.0	 105.0	 115.5	 0.0	 0.0	 1	 -30.0	 30.0;
	1251	 52219	 0.0305	 0.0674	 0.0063	 105.0	 105.0	 115.5	 0.0	 0.0	 1	 -30.0	 30.0;
	1271	 2041	 0.0106	 0.0546	 0.006	 178.0	 178.0	 195.8	 0.0	 0.0	 1	 -30.0	 30.0;
	1271	 2181	 0.0126	 0.065	 0.0071	 178.0	 178.0	 195.8	 0.0	 0.0	 1	 -30.0	 30.0;
	1281	 2221	 0.0426	 0.0943	 0.0098	 68.0	 105.0	 115.5	 0.0	 0.0	 1	 -30.0	 30.0;
	1301	 17411	 0.0148	 0.1159	 0.0104	 136.0	 136.0	 149.6	 0.0	 0.0	 1	 -30.0	 30.0;
	1321	 13219	 0.0006	 0.0017	 0.0002	 136.0	 136.0	 149.6	 0.0	 0.0	 1	 -30.0	 30.0;
	1341	 1701	 0.0533	 0.1178	 0.011	 105.0	 105.0	 115.5	 0.0	 0.0	 1	 -30.0	 30.0;
	1351	 4081	 0.0121	 0.0367	 0.031	 120.0	 120.0	 132.0	 0.0	 0.0	 1	 -30.0	 30.0;
	1351	 4201	 0.0073	 0.0214	 0.0295	 120.0	 120.0	 132.0	 0.0	 0.0	 1	 -30.0	 30.0;
	1361	 2001	 0.0312	 0.0751	 0.0073	 187.0	 187.0	 205.7	 0.0	 0.0	 1	 -30.0	 30.0;
	1361	 2161	 0.0176	 0.0389	 0.0037	 105.0	 105.0	 115.5	 0.0	 0.0	 1	 -30.0	 30.0;
	1381	 1391	 0.0	 0.0001	 0.0	 136.0	 136.0	 149.6	 0.0	 0.0	 0	 -30.0	 30.0;
	1381	 4721	 0.0027	 0.0059	 0.0006	 63.0	 63.0	 69.3	 0.0	 0.0	 1	 -30.0	 30.0;
	1391	 4731	 0.0021	 0.0061	 0.0007	 105.0	 105.0	 115.5	 0.0	 0.0	 1	 -30.0	 30.0;
	1401	 1661	 0.0579	 0.1281	 0.013	 105.0	 105.0	 115.5	 0.0	 0.0	 1	 -30.0	 30.0;
	1401	 4041	 0.042	 0.0929	 0.0087	 99.0	 99.0	 108.9	 0.0	 0.0	 1	 -30.0	 30.0;
...